p38_goldstein_01_2a_3fln.C
  MOE2024           3D
p38_goldstein_01_2a_3fln
 46 49  0  0  0  0  0  0  0  0999 V2000
   38.4940   24.9410   39.6920 C   0  0  0  0  0  0  0  0  0  0  0  0
   38.7963   24.0294   39.1766 H   0  0  0  0  0  0  0  0  0  0  0  0
   38.6765   25.8005   39.0470 H   0  0  0  0  0  0  0  0  0  0  0  0
   39.2950   25.0900   40.9880 C   0  0  0  0  0  0  0  0  0  0  0  0
   39.0130   26.0203   41.4811 H   0  0  0  0  0  0  0  0  0  0  0  0
   40.3593   25.1112   40.7535 H   0  0  0  0  0  0  0  0  0  0  0  0
   39.0240   23.9860   41.8660 O   0  0  0  0  0  0  0  0  0  0  0  0
   37.6450   23.8470   42.2420 C   0  0  0  0  0  0  0  0  0  0  0  0
   37.3315   24.7330   42.7942 H   0  0  0  0  0  0  0  0  0  0  0  0
   37.5313   22.9660   42.8737 H   0  0  0  0  0  0  0  0  0  0  0  0
   36.7700   23.6920   40.9970 C   0  0  0  0  0  0  0  0  0  0  0  0
   35.7210   23.6740   41.2927 H   0  0  0  0  0  0  0  0  0  0  0  0
   37.0214   22.7589   40.4927 H   0  0  0  0  0  0  0  0  0  0  0  0
   37.0080   24.8660   40.0410 C   0  0  0  0  0  0  0  0  0  0  0  0
   36.6891   25.8031   40.4972 H   0  0  0  0  0  0  0  0  0  0  0  0
   35.1120   25.3210   36.8900 N   0  0  0  0  0  0  0  0  0  0  0  0
   35.8020   25.5900   38.0310 C   0  0  0  0  0  0  0  0  0  0  0  0
   35.6030   27.9150   37.6560 C   0  0  0  0  0  0  0  0  0  0  0  0
   34.8880   27.6540   36.4820 C   0  0  0  0  0  0  0  0  0  0  0  0
   34.6570   26.3240   36.1200 C   0  0  0  0  0  0  0  0  0  0  0  0
   34.1096   26.1010   35.2161 H   0  0  0  0  0  0  0  0  0  0  0  0
   36.0400   26.8740   38.4000 N   0  0  0  0  0  0  0  0  0  0  0  0
   36.2680   24.5800   38.8140 N   0  0  0  0  0  0  0  0  0  0  0  0
   36.1005   23.6212   38.5441 H   0  0  0  0  0  0  0  0  0  0  0  0
   35.8800   29.2410   38.0720 N   0  0  0  0  0  0  0  0  0  0  0  0
   35.4190   30.3190   37.2830 C   0  0  0  0  0  0  0  0  0  0  0  0
   34.6540   30.0300   36.0440 C   0  0  0  0  0  0  0  0  0  0  0  0
   34.4160   28.7010   35.6820 C   0  0  0  0  0  0  0  0  0  0  0  0
   33.8647   28.4808   34.7798 H   0  0  0  0  0  0  0  0  0  0  0  0
   36.6390   29.4990   39.3080 C   0  0  0  0  0  0  0  0  0  0  0  0
   36.9060   28.5510   39.7750 H   0  0  0  0  0  0  0  0  0  0  0  0
   36.0267   30.0828   39.9952 H   0  0  0  0  0  0  0  0  0  0  0  0
   37.5459   30.0541   39.0683 H   0  0  0  0  0  0  0  0  0  0  0  0
   35.6340   31.5070   37.6100 O   0  0  0  0  0  0  0  0  0  0  0  0
   33.2430   31.0210   34.3310 C   0  0  0  0  0  0  0  0  0  0  0  0
   33.5830   31.3960   33.0370 C   0  0  0  0  0  0  0  0  0  0  0  0
   34.5834   31.7410   32.8213 H   0  0  0  0  0  0  0  0  0  0  0  0
   32.6370   31.3280   32.0180 C   0  0  0  0  0  0  0  0  0  0  0  0
   32.9052   31.6075   31.0099 H   0  0  0  0  0  0  0  0  0  0  0  0
   31.3460   30.8990   32.3030 C   0  0  0  0  0  0  0  0  0  0  0  0
   30.9940   30.5290   33.6010 C   0  0  0  0  0  0  0  0  0  0  0  0
   29.9894   30.1975   33.8183 H   0  0  0  0  0  0  0  0  0  0  0  0
   31.9470   30.5900   34.6150 C   0  0  0  0  0  0  0  0  0  0  0  0
   34.2090   31.1040   35.3060 O   0  0  0  0  0  0  0  0  0  0  0  0
   30.4400   30.8330   31.3130 F   0  0  0  0  0  0  0  0  0  0  0  0
   31.6040   30.2280   35.8610 F   0  0  0  0  0  0  0  0  0  0  0  0
  1  2  1  0  0  0  0
  1  3  1  0  0  0  0
  1  4  1  0  0  0  0
  1 14  1  0  0  0  0
  4  5  1  0  0  0  0
  4  6  1  0  0  0  0
  4  7  1  0  0  0  0
  7  8  1  0  0  0  0
  8  9  1  0  0  0  0
  8 10  1  0  0  0  0
  8 11  1  0  0  0  0
 11 12  1  0  0  0  0
 11 13  1  0  0  0  0
 11 14  1  0  0  0  0
 14 15  1  0  0  0  0
 14 23  1  0  0  0  0
 16 17  1  0  0  0  0
 16 20  2  0  0  0  0
 17 22  2  0  0  0  0
 17 23  1  0  0  0  0
 18 19  2  0  0  0  0
 18 22  1  0  0  0  0
 18 25  1  0  0  0  0
 19 20  1  0  0  0  0
 19 28  1  0  0  0  0
 20 21  1  0  0  0  0
 23 24  1  0  0  0  0
 25 26  1  0  0  0  0
 25 30  1  0  0  0  0
 26 27  1  0  0  0  0
 26 34  2  0  0  0  0
 27 28  2  0  0  0  0
 27 44  1  0  0  0  0
 28 29  1  0  0  0  0
 30 31  1  0  0  0  0
 30 32  1  0  0  0  0
 30 33  1  0  0  0  0
 35 36  1  0  0  0  0
 35 43  2  0  0  0  0
 35 44  1  0  0  0  0
 36 37  1  0  0  0  0
 36 38  2  0  0  0  0
 38 39  1  0  0  0  0
 38 40  1  0  0  0  0
 40 41  2  0  0  0  0
 40 45  1  0  0  0  0
 41 42  1  0  0  0  0
 41 43  1  0  0  0  0
 43 46  1  0  0  0  0
M  END
$$$$
p38_goldstein_02_2b_3flw
  MOE2024           3D
p38_goldstein_02_2b_3flw
 49 51  0  0  0  0  0  0  0  0999 V2000
   34.8250   25.3120   37.0780 N   0  0  0  0  0  0  0  0  0  0  0  0
   35.5560   25.5650   38.2010 C   0  0  0  0  0  0  0  0  0  0  0  0
   35.8120   26.8440   38.5800 N   0  0  0  0  0  0  0  0  0  0  0  0
   34.3500   26.3220   36.3300 C   0  0  0  0  0  0  0  0  0  0  0  0
   33.7778   26.1101   35.4389 H   0  0  0  0  0  0  0  0  0  0  0  0
   34.5950   27.6460   36.7030 C   0  0  0  0  0  0  0  0  0  0  0  0
   35.3480   27.8910   37.8550 C   0  0  0  0  0  0  0  0  0  0  0  0
   35.6140   29.2250   38.2510 N   0  0  0  0  0  0  0  0  0  0  0  0
   35.1050   30.2930   37.4630 C   0  0  0  0  0  0  0  0  0  0  0  0
   34.3550   30.0370   36.3160 C   0  0  0  0  0  0  0  0  0  0  0  0
   34.1040   28.7100   35.9430 C   0  0  0  0  0  0  0  0  0  0  0  0
   33.5229   28.5071   35.0556 H   0  0  0  0  0  0  0  0  0  0  0  0
   33.8810   31.1200   35.5940 O   0  0  0  0  0  0  0  0  0  0  0  0
   32.9730   31.0380   34.5640 C   0  0  0  0  0  0  0  0  0  0  0  0
   31.6700   30.5790   34.7640 C   0  0  0  0  0  0  0  0  0  0  0  0
   30.7870   30.5120   33.6850 C   0  0  0  0  0  0  0  0  0  0  0  0
   29.7776   30.1579   33.8337 H   0  0  0  0  0  0  0  0  0  0  0  0
   31.2100   30.9030   32.4140 C   0  0  0  0  0  0  0  0  0  0  0  0
   32.5100   31.3670   32.2130 C   0  0  0  0  0  0  0  0  0  0  0  0
   32.8343   31.6686   31.2280 H   0  0  0  0  0  0  0  0  0  0  0  0
   33.3860   31.4380   33.2930 C   0  0  0  0  0  0  0  0  0  0  0  0
   34.3911   31.8049   33.1458 H   0  0  0  0  0  0  0  0  0  0  0  0
   35.3230   31.4820   37.7920 O   0  0  0  0  0  0  0  0  0  0  0  0
   36.0320   24.5310   38.9330 N   0  0  0  0  0  0  0  0  0  0  0  0
   35.2217   24.0587   39.3077 H   0  0  0  0  0  0  0  0  0  0  0  0
   36.4060   29.4980   39.4600 C   0  0  0  0  0  0  0  0  0  0  0  0
   36.7019   28.5556   39.9210 H   0  0  0  0  0  0  0  0  0  0  0  0
   35.8066   30.0746   40.1645 H   0  0  0  0  0  0  0  0  0  0  0  0
   37.2964   30.0660   39.1905 H   0  0  0  0  0  0  0  0  0  0  0  0
   30.3670   30.8370   31.3730 F   0  0  0  0  0  0  0  0  0  0  0  0
   31.2530   30.1860   35.9860 F   0  0  0  0  0  0  0  0  0  0  0  0
   36.9460   24.7080   40.0510 C   0  0  0  0  0  0  0  0  0  0  0  0
   36.8796   25.7442   40.3826 H   0  0  0  0  0  0  0  0  0  0  0  0
   36.5620   23.7530   41.1740 C   0  0  0  0  0  0  0  0  0  0  0  0
   37.4677   23.3230   41.6018 H   0  0  0  0  0  0  0  0  0  0  0  0
   35.9387   22.9566   40.7674 H   0  0  0  0  0  0  0  0  0  0  0  0
   35.7920   24.4790   42.2660 C   0  0  0  0  0  0  0  0  0  0  0  0
   35.5440   25.4853   41.9286 H   0  0  0  0  0  0  0  0  0  0  0  0
   36.4049   24.5381   43.1654 H   0  0  0  0  0  0  0  0  0  0  0  0
   34.5880   23.7620   42.5550 O   0  0  0  0  0  0  0  0  0  0  0  0
   34.0705   23.7262   41.7472 H   0  0  0  0  0  0  0  0  0  0  0  0
   38.3830   24.4020   39.6350 C   0  0  0  0  0  0  0  0  0  0  0  0
   38.3943   23.4421   39.1187 H   0  0  0  0  0  0  0  0  0  0  0  0
   38.9950   24.3378   40.5347 H   0  0  0  0  0  0  0  0  0  0  0  0
   38.9940   25.4530   38.7110 C   0  0  0  0  0  0  0  0  0  0  0  0
   38.3574   25.5805   37.8354 H   0  0  0  0  0  0  0  0  0  0  0  0
   39.9849   25.1266   38.3954 H   0  0  0  0  0  0  0  0  0  0  0  0
   39.1020   26.6990   39.4070 O   0  0  0  0  0  0  0  0  0  0  0  0
   38.2173   26.9611   39.6721 H   0  0  0  0  0  0  0  0  0  0  0  0
  1  2  2  0  0  0  0
  1  4  1  0  0  0  0
  2  3  1  0  0  0  0
  2 24  1  0  0  0  0
  3  7  2  0  0  0  0
  4  5  1  0  0  0  0
  4  6  2  0  0  0  0
  6  7  1  0  0  0  0
  6 11  1  0  0  0  0
  7  8  1  0  0  0  0
  8  9  1  0  0  0  0
  8 26  1  0  0  0  0
  9 10  1  0  0  0  0
  9 23  2  0  0  0  0
 10 11  2  0  0  0  0
 10 13  1  0  0  0  0
 11 12  1  0  0  0  0
 13 14  1  0  0  0  0
 14 15  1  0  0  0  0
 14 21  2  0  0  0  0
 15 16  2  0  0  0  0
 15 31  1  0  0  0  0
 16 17  1  0  0  0  0
 16 18  1  0  0  0  0
 18 19  2  0  0  0  0
 18 30  1  0  0  0  0
 19 20  1  0  0  0  0
 19 21  1  0  0  0  0
 21 22  1  0  0  0  0
 24 25  1  0  0  0  0
 24 32  1  0  0  0  0
 26 27  1  0  0  0  0
 26 28  1  0  0  0  0
 26 29  1  0  0  0  0
 32 33  1  0  0  0  0
 32 34  1  0  0  0  0
 32 42  1  0  0  0  0
 34 35  1  0  0  0  0
 34 36  1  0  0  0  0
 34 37  1  0  0  0  0
 37 38  1  0  0  0  0
 37 39  1  0  0  0  0
 37 40  1  0  0  0  0
 40 41  1  0  0  0  0
 42 43  1  0  0  0  0
 42 44  1  0  0  0  0
 42 45  1  0  0  0  0
 45 46  1  0  0  0  0
 45 47  1  0  0  0  0
 45 48  1  0  0  0  0
 48 49  1  0  0  0  0
M  END
$$$$
p38_goldstein_03_2c.C
  MOE2024           3D
p38_goldstein_03_2c
 45 48  0  0  0  0  0  0  0  0999 V2000
   38.2970   24.9800   39.7730 C   0  0  0  0  0  0  0  0  0  0  0  0
   38.6009   24.0658   39.2631 H   0  0  0  0  0  0  0  0  0  0  0  0
   38.4835   25.8365   39.1251 H   0  0  0  0  0  0  0  0  0  0  0  0
   39.0920   25.1340   41.0720 C   0  0  0  0  0  0  0  0  0  0  0  0
   38.8092   26.0672   41.5591 H   0  0  0  0  0  0  0  0  0  0  0  0
   40.1574   25.1523   40.8425 H   0  0  0  0  0  0  0  0  0  0  0  0
   37.4340   23.8990   42.3230 C   0  0  0  0  0  0  0  0  0  0  0  0
   37.3164   23.0211   42.9582 H   0  0  0  0  0  0  0  0  0  0  0  0
   37.1187   24.7878   42.8695 H   0  0  0  0  0  0  0  0  0  0  0  0
   36.5640   23.7390   41.0750 C   0  0  0  0  0  0  0  0  0  0  0  0
   35.5137   23.7244   41.3661 H   0  0  0  0  0  0  0  0  0  0  0  0
   36.8159   22.8030   40.5764 H   0  0  0  0  0  0  0  0  0  0  0  0
   38.8150   24.0350   41.9540 O   0  0  0  0  0  0  0  0  0  0  0  0
   35.2410   30.3490   37.3210 C   0  0  0  0  0  0  0  0  0  0  0  0
   35.6140   25.6240   38.0940 C   0  0  0  0  0  0  0  0  0  0  0  0
   36.8090   24.9080   40.1150 C   0  0  0  0  0  0  0  0  0  0  0  0
   36.4892   25.8475   40.5656 H   0  0  0  0  0  0  0  0  0  0  0  0
   34.7100   27.6810   36.5310 C   0  0  0  0  0  0  0  0  0  0  0  0
   34.2440   28.7240   35.7240 C   0  0  0  0  0  0  0  0  0  0  0  0
   33.6969   28.4999   34.8202 H   0  0  0  0  0  0  0  0  0  0  0  0
   35.4200   27.9480   37.7070 C   0  0  0  0  0  0  0  0  0  0  0  0
   34.4800   26.3490   36.1740 C   0  0  0  0  0  0  0  0  0  0  0  0
   33.9374   26.1220   35.2682 H   0  0  0  0  0  0  0  0  0  0  0  0
   34.4820   30.0550   36.0800 C   0  0  0  0  0  0  0  0  0  0  0  0
   36.4500   29.5370   39.3560 C   0  0  0  0  0  0  0  0  0  0  0  0
   36.5574   30.6127   39.4951 H   0  0  0  0  0  0  0  0  0  0  0  0
   37.4368   29.0795   39.2848 H   0  0  0  0  0  0  0  0  0  0  0  0
   35.9132   29.1127   40.2045 H   0  0  0  0  0  0  0  0  0  0  0  0
   34.9300   25.3500   36.9510 N   0  0  0  0  0  0  0  0  0  0  0  0
   35.4550   31.5390   37.6440 O   0  0  0  0  0  0  0  0  0  0  0  0
   35.6970   29.2750   38.1180 N   0  0  0  0  0  0  0  0  0  0  0  0
   35.8510   26.9090   38.4580 N   0  0  0  0  0  0  0  0  0  0  0  0
   36.0750   24.6170   38.8850 N   0  0  0  0  0  0  0  0  0  0  0  0
   35.9079   23.6571   38.6189 H   0  0  0  0  0  0  0  0  0  0  0  0
   30.8350   30.5460   33.6160 C   0  0  0  0  0  0  0  0  0  0  0  0
   29.8290   30.2165   33.8301 H   0  0  0  0  0  0  0  0  0  0  0  0
   31.7830   30.6110   34.6350 C   0  0  0  0  0  0  0  0  0  0  0  0
   31.1930   30.9090   32.3180 C   0  0  0  0  0  0  0  0  0  0  0  0
   32.4860   31.3350   32.0370 C   0  0  0  0  0  0  0  0  0  0  0  0
   32.7594   31.6084   31.0286 H   0  0  0  0  0  0  0  0  0  0  0  0
   33.4280   31.4080   33.0610 C   0  0  0  0  0  0  0  0  0  0  0  0
   34.4299   31.7510   32.8488 H   0  0  0  0  0  0  0  0  0  0  0  0
   33.0800   31.0400   34.3550 C   0  0  0  0  0  0  0  0  0  0  0  0
   31.3327   30.1555   36.2324 Cl  0  0  0  0  0  0  0  0  0  0  0  0
   30.4660   30.8533   31.5159 H   0  0  0  0  0  0  0  0  0  0  0  0
  1  2  1  0  0  0  0
  1  3  1  0  0  0  0
  1  4  1  0  0  0  0
  1 16  1  0  0  0  0
  4  5  1  0  0  0  0
  4  6  1  0  0  0  0
  4 13  1  0  0  0  0
  7  8  1  0  0  0  0
  7  9  1  0  0  0  0
  7 10  1  0  0  0  0
  7 13  1  0  0  0  0
 10 11  1  0  0  0  0
 10 12  1  0  0  0  0
 10 16  1  0  0  0  0
 14 24  1  0  0  0  0
 14 30  2  0  0  0  0
 14 31  1  0  0  0  0
 15 29  2  0  0  0  0
 15 32  1  0  0  0  0
 15 33  1  0  0  0  0
 16 17  1  0  0  0  0
 16 33  1  0  0  0  0
 18 19  1  0  0  0  0
 18 21  1  0  0  0  0
 18 22  2  0  0  0  0
 19 20  1  0  0  0  0
 19 24  2  0  0  0  0
 21 31  1  0  0  0  0
 21 32  2  0  0  0  0
 22 23  1  0  0  0  0
 22 29  1  0  0  0  0
 24 43  1  0  0  0  0
 25 26  1  0  0  0  0
 25 27  1  0  0  0  0
 25 28  1  0  0  0  0
 25 31  1  0  0  0  0
 33 34  1  0  0  0  0
 35 36  1  0  0  0  0
 35 37  2  0  0  0  0
 35 38  1  0  0  0  0
 37 43  1  0  0  0  0
 37 44  1  0  0  0  0
 38 39  2  0  0  0  0
 38 45  1  0  0  0  0
 39 40  1  0  0  0  0
 39 41  1  0  0  0  0
 41 42  1  0  0  0  0
 41 43  2  0  0  0  0
M  END
$$$$
p38_goldstein_04_2d_3flz
  MOE2024           3D
p38_goldstein_04_2d_3flz
 46 49  0  0  0  0  0  0  0  0999 V2000
   34.8640   25.3410   36.9800 N   0  0  0  0  0  0  0  0  0  0  0  0
   35.7080   25.5790   38.0190 C   0  0  0  0  0  0  0  0  0  0  0  0
   36.0630   26.8500   38.3340 N   0  0  0  0  0  0  0  0  0  0  0  0
   34.3680   26.3610   36.2570 C   0  0  0  0  0  0  0  0  0  0  0  0
   33.6993   26.1618   35.4327 H   0  0  0  0  0  0  0  0  0  0  0  0
   34.7150   27.6750   36.5690 C   0  0  0  0  0  0  0  0  0  0  0  0
   35.5890   27.9070   37.6360 C   0  0  0  0  0  0  0  0  0  0  0  0
   35.9660   29.2300   37.9770 N   0  0  0  0  0  0  0  0  0  0  0  0
   35.4420   30.3120   37.2180 C   0  0  0  0  0  0  0  0  0  0  0  0
   34.5730   30.0690   36.1530 C   0  0  0  0  0  0  0  0  0  0  0  0
   34.2160   28.7510   35.8310 C   0  0  0  0  0  0  0  0  0  0  0  0
   33.5477   28.5661   35.0030 H   0  0  0  0  0  0  0  0  0  0  0  0
   34.0870   31.1480   35.4420 O   0  0  0  0  0  0  0  0  0  0  0  0
   32.9960   31.0980   34.6080 C   0  0  0  0  0  0  0  0  0  0  0  0
   35.7570   31.4900   37.4990 O   0  0  0  0  0  0  0  0  0  0  0  0
   36.8830   29.4750   39.1020 C   0  0  0  0  0  0  0  0  0  0  0  0
   37.1694   28.5240   39.5510 H   0  0  0  0  0  0  0  0  0  0  0  0
   36.3851   30.0939   39.8484 H   0  0  0  0  0  0  0  0  0  0  0  0
   37.7736   29.9885   38.7397 H   0  0  0  0  0  0  0  0  0  0  0  0
   33.1640   31.3830   33.2500 C   0  0  0  0  0  0  0  0  0  0  0  0
   34.1415   31.6387   32.8685 H   0  0  0  0  0  0  0  0  0  0  0  0
   32.0690   31.3370   32.3880 C   0  0  0  0  0  0  0  0  0  0  0  0
   32.1973   31.5531   31.3377 H   0  0  0  0  0  0  0  0  0  0  0  0
   30.8070   31.0110   32.8860 C   0  0  0  0  0  0  0  0  0  0  0  0
   29.9586   30.9756   32.2186 H   0  0  0  0  0  0  0  0  0  0  0  0
   30.6360   30.7310   34.2400 C   0  0  0  0  0  0  0  0  0  0  0  0
   29.6573   30.4777   34.6201 H   0  0  0  0  0  0  0  0  0  0  0  0
   31.7280   30.7780   35.1030 C   0  0  0  0  0  0  0  0  0  0  0  0
   31.5956   30.5674   36.1540 H   0  0  0  0  0  0  0  0  0  0  0  0
   36.2110   24.5520   38.7470 N   0  0  0  0  0  0  0  0  0  0  0  0
   36.0807   23.6010   38.4329 H   0  0  0  0  0  0  0  0  0  0  0  0
   36.9390   24.8160   39.9810 C   0  0  0  0  0  0  0  0  0  0  0  0
   36.6419   25.7990   40.3464 H   0  0  0  0  0  0  0  0  0  0  0  0
   36.5820   23.7930   41.0690 C   0  0  0  0  0  0  0  0  0  0  0  0
   36.6972   22.7892   40.6602 H   0  0  0  0  0  0  0  0  0  0  0  0
   35.5456   23.9460   41.3700 H   0  0  0  0  0  0  0  0  0  0  0  0
   37.4810   23.9320   42.3010 C   0  0  0  0  0  0  0  0  0  0  0  0
   37.2948   23.0954   42.9745 H   0  0  0  0  0  0  0  0  0  0  0  0
   37.2466   24.8671   42.8097 H   0  0  0  0  0  0  0  0  0  0  0  0
   38.8670   23.9350   41.9280 O   0  0  0  0  0  0  0  0  0  0  0  0
   39.2160   24.9960   41.0300 C   0  0  0  0  0  0  0  0  0  0  0  0
   40.2869   24.9636   40.8293 H   0  0  0  0  0  0  0  0  0  0  0  0
   38.9602   25.9536   41.4835 H   0  0  0  0  0  0  0  0  0  0  0  0
   38.4470   24.8330   39.7170 C   0  0  0  0  0  0  0  0  0  0  0  0
   38.6864   25.6650   39.0547 H   0  0  0  0  0  0  0  0  0  0  0  0
   38.7394   23.8958   39.2434 H   0  0  0  0  0  0  0  0  0  0  0  0
  1  2  2  0  0  0  0
  1  4  1  0  0  0  0
  2  3  1  0  0  0  0
  2 30  1  0  0  0  0
  3  7  2  0  0  0  0
  4  5  1  0  0  0  0
  4  6  2  0  0  0  0
  6  7  1  0  0  0  0
  6 11  1  0  0  0  0
  7  8  1  0  0  0  0
  8  9  1  0  0  0  0
  8 16  1  0  0  0  0
  9 10  1  0  0  0  0
  9 15  2  0  0  0  0
 10 11  2  0  0  0  0
 10 13  1  0  0  0  0
 11 12  1  0  0  0  0
 13 14  1  0  0  0  0
 14 20  1  0  0  0  0
 14 28  2  0  0  0  0
 16 17  1  0  0  0  0
 16 18  1  0  0  0  0
 16 19  1  0  0  0  0
 20 21  1  0  0  0  0
 20 22  2  0  0  0  0
 22 23  1  0  0  0  0
 22 24  1  0  0  0  0
 24 25  1  0  0  0  0
 24 26  2  0  0  0  0
 26 27  1  0  0  0  0
 26 28  1  0  0  0  0
 28 29  1  0  0  0  0
 30 31  1  0  0  0  0
 30 32  1  0  0  0  0
 32 33  1  0  0  0  0
 32 34  1  0  0  0  0
 32 44  1  0  0  0  0
 34 35  1  0  0  0  0
 34 36  1  0  0  0  0
 34 37  1  0  0  0  0
 37 38  1  0  0  0  0
 37 39  1  0  0  0  0
 37 40  1  0  0  0  0
 40 41  1  0  0  0  0
 41 42  1  0  0  0  0
 41 43  1  0  0  0  0
 41 44  1  0  0  0  0
 44 45  1  0  0  0  0
 44 46  1  0  0  0  0
M  END
$$$$
p38_goldstein_05_2e.C
  MOE2024           3D
p38_goldstein_05_2e
 46 49  0  0  0  0  0  0  0  0999 V2000
   38.2970   24.9800   39.7730 C   0  0  0  0  0  0  0  0  0  0  0  0
   38.6009   24.0658   39.2631 H   0  0  0  0  0  0  0  0  0  0  0  0
   38.4835   25.8365   39.1251 H   0  0  0  0  0  0  0  0  0  0  0  0
   39.0920   25.1340   41.0720 C   0  0  0  0  0  0  0  0  0  0  0  0
   38.8092   26.0672   41.5591 H   0  0  0  0  0  0  0  0  0  0  0  0
   40.1574   25.1523   40.8425 H   0  0  0  0  0  0  0  0  0  0  0  0
   37.4340   23.8990   42.3230 C   0  0  0  0  0  0  0  0  0  0  0  0
   37.3164   23.0211   42.9582 H   0  0  0  0  0  0  0  0  0  0  0  0
   37.1187   24.7878   42.8695 H   0  0  0  0  0  0  0  0  0  0  0  0
   36.5640   23.7390   41.0750 C   0  0  0  0  0  0  0  0  0  0  0  0
   35.5137   23.7244   41.3661 H   0  0  0  0  0  0  0  0  0  0  0  0
   36.8159   22.8030   40.5764 H   0  0  0  0  0  0  0  0  0  0  0  0
   30.8350   30.5460   33.6160 C   0  0  0  0  0  0  0  0  0  0  0  0
   29.8290   30.2165   33.8301 H   0  0  0  0  0  0  0  0  0  0  0  0
   38.8150   24.0350   41.9540 O   0  0  0  0  0  0  0  0  0  0  0  0
   35.2410   30.3490   37.3210 C   0  0  0  0  0  0  0  0  0  0  0  0
   31.7830   30.6110   34.6350 C   0  0  0  0  0  0  0  0  0  0  0  0
   31.5133   30.3290   35.6420 H   0  0  0  0  0  0  0  0  0  0  0  0
   35.6140   25.6240   38.0940 C   0  0  0  0  0  0  0  0  0  0  0  0
   36.8090   24.9080   40.1150 C   0  0  0  0  0  0  0  0  0  0  0  0
   36.4892   25.8475   40.5656 H   0  0  0  0  0  0  0  0  0  0  0  0
   34.7100   27.6810   36.5310 C   0  0  0  0  0  0  0  0  0  0  0  0
   34.2440   28.7240   35.7240 C   0  0  0  0  0  0  0  0  0  0  0  0
   33.6969   28.4999   34.8202 H   0  0  0  0  0  0  0  0  0  0  0  0
   31.1930   30.9090   32.3180 C   0  0  0  0  0  0  0  0  0  0  0  0
   32.4860   31.3350   32.0370 C   0  0  0  0  0  0  0  0  0  0  0  0
   32.7594   31.6084   31.0286 H   0  0  0  0  0  0  0  0  0  0  0  0
   33.4280   31.4080   33.0610 C   0  0  0  0  0  0  0  0  0  0  0  0
   34.4299   31.7510   32.8488 H   0  0  0  0  0  0  0  0  0  0  0  0
   35.4200   27.9480   37.7070 C   0  0  0  0  0  0  0  0  0  0  0  0
   34.4800   26.3490   36.1740 C   0  0  0  0  0  0  0  0  0  0  0  0
   33.9374   26.1220   35.2682 H   0  0  0  0  0  0  0  0  0  0  0  0
   34.4820   30.0550   36.0800 C   0  0  0  0  0  0  0  0  0  0  0  0
   33.0800   31.0400   34.3550 C   0  0  0  0  0  0  0  0  0  0  0  0
   36.4500   29.5370   39.3560 C   0  0  0  0  0  0  0  0  0  0  0  0
   36.5574   30.6127   39.4951 H   0  0  0  0  0  0  0  0  0  0  0  0
   37.4368   29.0795   39.2848 H   0  0  0  0  0  0  0  0  0  0  0  0
   35.9132   29.1127   40.2045 H   0  0  0  0  0  0  0  0  0  0  0  0
   30.2920   30.8400   31.3240 F   0  0  0  0  0  0  0  0  0  0  0  0
   34.0420   31.1260   35.3340 O   0  0  0  0  0  0  0  0  0  0  0  0
   34.9300   25.3500   36.9510 N   0  0  0  0  0  0  0  0  0  0  0  0
   35.4550   31.5390   37.6440 O   0  0  0  0  0  0  0  0  0  0  0  0
   35.6970   29.2750   38.1180 N   0  0  0  0  0  0  0  0  0  0  0  0
   35.8510   26.9090   38.4580 N   0  0  0  0  0  0  0  0  0  0  0  0
   36.0750   24.6170   38.8850 N   0  0  0  0  0  0  0  0  0  0  0  0
   35.9079   23.6571   38.6189 H   0  0  0  0  0  0  0  0  0  0  0  0
  1  2  1  0  0  0  0
  1  3  1  0  0  0  0
  1  4  1  0  0  0  0
  1 20  1  0  0  0  0
  4  5  1  0  0  0  0
  4  6  1  0  0  0  0
  4 15  1  0  0  0  0
  7  8  1  0  0  0  0
  7  9  1  0  0  0  0
  7 10  1  0  0  0  0
  7 15  1  0  0  0  0
 10 11  1  0  0  0  0
 10 12  1  0  0  0  0
 10 20  1  0  0  0  0
 13 14  1  0  0  0  0
 13 17  1  0  0  0  0
 13 25  2  0  0  0  0
 16 33  1  0  0  0  0
 16 42  2  0  0  0  0
 16 43  1  0  0  0  0
 17 18  1  0  0  0  0
 17 34  2  0  0  0  0
 19 41  2  0  0  0  0
 19 44  1  0  0  0  0
 19 45  1  0  0  0  0
 20 21  1  0  0  0  0
 20 45  1  0  0  0  0
 22 23  1  0  0  0  0
 22 30  1  0  0  0  0
 22 31  2  0  0  0  0
 23 24  1  0  0  0  0
 23 33  2  0  0  0  0
 25 26  1  0  0  0  0
 25 39  1  0  0  0  0
 26 27  1  0  0  0  0
 26 28  2  0  0  0  0
 28 29  1  0  0  0  0
 28 34  1  0  0  0  0
 30 43  1  0  0  0  0
 30 44  2  0  0  0  0
 31 32  1  0  0  0  0
 31 41  1  0  0  0  0
 33 40  1  0  0  0  0
 34 40  1  0  0  0  0
 35 36  1  0  0  0  0
 35 37  1  0  0  0  0
 35 38  1  0  0  0  0
 35 43  1  0  0  0  0
 45 46  1  0  0  0  0
M  END
$$$$
p38_goldstein_06_2f.C
  MOE2024           3D
p38_goldstein_06_2f
 46 49  0  0  0  0  0  0  0  0999 V2000
   38.2970   24.9800   39.7730 C   0  0  0  0  0  0  0  0  0  0  0  0
   38.6009   24.0658   39.2631 H   0  0  0  0  0  0  0  0  0  0  0  0
   38.4835   25.8365   39.1251 H   0  0  0  0  0  0  0  0  0  0  0  0
   39.0920   25.1340   41.0720 C   0  0  0  0  0  0  0  0  0  0  0  0
   38.8092   26.0672   41.5591 H   0  0  0  0  0  0  0  0  0  0  0  0
   40.1574   25.1523   40.8425 H   0  0  0  0  0  0  0  0  0  0  0  0
   37.4340   23.8990   42.3230 C   0  0  0  0  0  0  0  0  0  0  0  0
   37.3164   23.0211   42.9582 H   0  0  0  0  0  0  0  0  0  0  0  0
   37.1187   24.7878   42.8695 H   0  0  0  0  0  0  0  0  0  0  0  0
   36.5640   23.7390   41.0750 C   0  0  0  0  0  0  0  0  0  0  0  0
   35.5137   23.7244   41.3661 H   0  0  0  0  0  0  0  0  0  0  0  0
   36.8159   22.8030   40.5764 H   0  0  0  0  0  0  0  0  0  0  0  0
   30.8350   30.5460   33.6160 C   0  0  0  0  0  0  0  0  0  0  0  0
   29.5850   30.1366   33.8820 F   0  0  0  0  0  0  0  0  0  0  0  0
   38.8150   24.0350   41.9540 O   0  0  0  0  0  0  0  0  0  0  0  0
   35.2410   30.3490   37.3210 C   0  0  0  0  0  0  0  0  0  0  0  0
   31.7830   30.6110   34.6350 C   0  0  0  0  0  0  0  0  0  0  0  0
   31.5133   30.3290   35.6420 H   0  0  0  0  0  0  0  0  0  0  0  0
   35.6140   25.6240   38.0940 C   0  0  0  0  0  0  0  0  0  0  0  0
   36.8090   24.9080   40.1150 C   0  0  0  0  0  0  0  0  0  0  0  0
   36.4892   25.8475   40.5656 H   0  0  0  0  0  0  0  0  0  0  0  0
   34.7100   27.6810   36.5310 C   0  0  0  0  0  0  0  0  0  0  0  0
   34.2440   28.7240   35.7240 C   0  0  0  0  0  0  0  0  0  0  0  0
   33.6969   28.4999   34.8202 H   0  0  0  0  0  0  0  0  0  0  0  0
   31.1930   30.9090   32.3180 C   0  0  0  0  0  0  0  0  0  0  0  0
   30.4607   30.8588   31.5257 H   0  0  0  0  0  0  0  0  0  0  0  0
   32.4860   31.3350   32.0370 C   0  0  0  0  0  0  0  0  0  0  0  0
   32.7594   31.6084   31.0286 H   0  0  0  0  0  0  0  0  0  0  0  0
   33.4280   31.4080   33.0610 C   0  0  0  0  0  0  0  0  0  0  0  0
   34.4299   31.7510   32.8488 H   0  0  0  0  0  0  0  0  0  0  0  0
   35.4200   27.9480   37.7070 C   0  0  0  0  0  0  0  0  0  0  0  0
   34.4800   26.3490   36.1740 C   0  0  0  0  0  0  0  0  0  0  0  0
   33.9374   26.1220   35.2682 H   0  0  0  0  0  0  0  0  0  0  0  0
   34.4820   30.0550   36.0800 C   0  0  0  0  0  0  0  0  0  0  0  0
   33.0800   31.0400   34.3550 C   0  0  0  0  0  0  0  0  0  0  0  0
   36.4500   29.5370   39.3560 C   0  0  0  0  0  0  0  0  0  0  0  0
   36.5574   30.6127   39.4951 H   0  0  0  0  0  0  0  0  0  0  0  0
   37.4368   29.0795   39.2848 H   0  0  0  0  0  0  0  0  0  0  0  0
   35.9132   29.1127   40.2045 H   0  0  0  0  0  0  0  0  0  0  0  0
   34.0420   31.1260   35.3340 O   0  0  0  0  0  0  0  0  0  0  0  0
   34.9300   25.3500   36.9510 N   0  0  0  0  0  0  0  0  0  0  0  0
   35.4550   31.5390   37.6440 O   0  0  0  0  0  0  0  0  0  0  0  0
   35.6970   29.2750   38.1180 N   0  0  0  0  0  0  0  0  0  0  0  0
   35.8510   26.9090   38.4580 N   0  0  0  0  0  0  0  0  0  0  0  0
   36.0750   24.6170   38.8850 N   0  0  0  0  0  0  0  0  0  0  0  0
   35.9079   23.6571   38.6189 H   0  0  0  0  0  0  0  0  0  0  0  0
  1  2  1  0  0  0  0
  1  3  1  0  0  0  0
  1  4  1  0  0  0  0
  1 20  1  0  0  0  0
  4  5  1  0  0  0  0
  4  6  1  0  0  0  0
  4 15  1  0  0  0  0
  7  8  1  0  0  0  0
  7  9  1  0  0  0  0
  7 10  1  0  0  0  0
  7 15  1  0  0  0  0
 10 11  1  0  0  0  0
 10 12  1  0  0  0  0
 10 20  1  0  0  0  0
 13 14  1  0  0  0  0
 13 17  1  0  0  0  0
 13 25  2  0  0  0  0
 16 34  1  0  0  0  0
 16 42  2  0  0  0  0
 16 43  1  0  0  0  0
 17 18  1  0  0  0  0
 17 35  2  0  0  0  0
 19 41  2  0  0  0  0
 19 44  1  0  0  0  0
 19 45  1  0  0  0  0
 20 21  1  0  0  0  0
 20 45  1  0  0  0  0
 22 23  1  0  0  0  0
 22 31  1  0  0  0  0
 22 32  2  0  0  0  0
 23 24  1  0  0  0  0
 23 34  2  0  0  0  0
 25 26  1  0  0  0  0
 25 27  1  0  0  0  0
 27 28  1  0  0  0  0
 27 29  2  0  0  0  0
 29 30  1  0  0  0  0
 29 35  1  0  0  0  0
 31 43  1  0  0  0  0
 31 44  2  0  0  0  0
 32 33  1  0  0  0  0
 32 41  1  0  0  0  0
 34 40  1  0  0  0  0
 35 40  1  0  0  0  0
 36 37  1  0  0  0  0
 36 38  1  0  0  0  0
 36 39  1  0  0  0  0
 36 43  1  0  0  0  0
 45 46  1  0  0  0  0
M  END
$$$$
p38_goldstein_07_2g.C
  MOE2024           3D
p38_goldstein_07_2g
 46 49  0  0  0  0  0  0  0  0999 V2000
   38.2970   24.9800   39.7730 C   0  0  0  0  0  0  0  0  0  0  0  0
   38.6009   24.0658   39.2631 H   0  0  0  0  0  0  0  0  0  0  0  0
   38.4835   25.8365   39.1251 H   0  0  0  0  0  0  0  0  0  0  0  0
   39.0920   25.1340   41.0720 C   0  0  0  0  0  0  0  0  0  0  0  0
   38.8092   26.0672   41.5591 H   0  0  0  0  0  0  0  0  0  0  0  0
   40.1574   25.1523   40.8425 H   0  0  0  0  0  0  0  0  0  0  0  0
   37.4340   23.8990   42.3230 C   0  0  0  0  0  0  0  0  0  0  0  0
   37.3164   23.0211   42.9582 H   0  0  0  0  0  0  0  0  0  0  0  0
   37.1187   24.7878   42.8695 H   0  0  0  0  0  0  0  0  0  0  0  0
   36.5640   23.7390   41.0750 C   0  0  0  0  0  0  0  0  0  0  0  0
   35.5137   23.7244   41.3661 H   0  0  0  0  0  0  0  0  0  0  0  0
   36.8159   22.8030   40.5764 H   0  0  0  0  0  0  0  0  0  0  0  0
   30.8350   30.5460   33.6160 C   0  0  0  0  0  0  0  0  0  0  0  0
   29.8290   30.2165   33.8301 H   0  0  0  0  0  0  0  0  0  0  0  0
   38.8150   24.0350   41.9540 O   0  0  0  0  0  0  0  0  0  0  0  0
   35.2410   30.3490   37.3210 C   0  0  0  0  0  0  0  0  0  0  0  0
   31.7830   30.6110   34.6350 C   0  0  0  0  0  0  0  0  0  0  0  0
   35.6140   25.6240   38.0940 C   0  0  0  0  0  0  0  0  0  0  0  0
   36.8090   24.9080   40.1150 C   0  0  0  0  0  0  0  0  0  0  0  0
   36.4892   25.8475   40.5656 H   0  0  0  0  0  0  0  0  0  0  0  0
   34.7100   27.6810   36.5310 C   0  0  0  0  0  0  0  0  0  0  0  0
   34.2440   28.7240   35.7240 C   0  0  0  0  0  0  0  0  0  0  0  0
   33.6969   28.4999   34.8202 H   0  0  0  0  0  0  0  0  0  0  0  0
   31.1930   30.9090   32.3180 C   0  0  0  0  0  0  0  0  0  0  0  0
   32.4860   31.3350   32.0370 C   0  0  0  0  0  0  0  0  0  0  0  0
   32.7594   31.6084   31.0286 H   0  0  0  0  0  0  0  0  0  0  0  0
   33.4280   31.4080   33.0610 C   0  0  0  0  0  0  0  0  0  0  0  0
   34.4299   31.7510   32.8488 H   0  0  0  0  0  0  0  0  0  0  0  0
   35.4200   27.9480   37.7070 C   0  0  0  0  0  0  0  0  0  0  0  0
   34.4800   26.3490   36.1740 C   0  0  0  0  0  0  0  0  0  0  0  0
   33.9374   26.1220   35.2682 H   0  0  0  0  0  0  0  0  0  0  0  0
   34.4820   30.0550   36.0800 C   0  0  0  0  0  0  0  0  0  0  0  0
   33.0800   31.0400   34.3550 C   0  0  0  0  0  0  0  0  0  0  0  0
   36.4500   29.5370   39.3560 C   0  0  0  0  0  0  0  0  0  0  0  0
   36.5574   30.6127   39.4951 H   0  0  0  0  0  0  0  0  0  0  0  0
   37.4368   29.0795   39.2848 H   0  0  0  0  0  0  0  0  0  0  0  0
   35.9132   29.1127   40.2045 H   0  0  0  0  0  0  0  0  0  0  0  0
   31.4320   30.2560   35.8800 F   0  0  0  0  0  0  0  0  0  0  0  0
   30.4660   30.8533   31.5159 H   0  0  0  0  0  0  0  0  0  0  0  0
   34.0420   31.1260   35.3340 O   0  0  0  0  0  0  0  0  0  0  0  0
   34.9300   25.3500   36.9510 N   0  0  0  0  0  0  0  0  0  0  0  0
   35.4550   31.5390   37.6440 O   0  0  0  0  0  0  0  0  0  0  0  0
   35.6970   29.2750   38.1180 N   0  0  0  0  0  0  0  0  0  0  0  0
   35.8510   26.9090   38.4580 N   0  0  0  0  0  0  0  0  0  0  0  0
   36.0750   24.6170   38.8850 N   0  0  0  0  0  0  0  0  0  0  0  0
   35.9079   23.6571   38.6189 H   0  0  0  0  0  0  0  0  0  0  0  0
  1  2  1  0  0  0  0
  1  3  1  0  0  0  0
  1  4  1  0  0  0  0
  1 19  1  0  0  0  0
  4  5  1  0  0  0  0
  4  6  1  0  0  0  0
  4 15  1  0  0  0  0
  7  8  1  0  0  0  0
  7  9  1  0  0  0  0
  7 10  1  0  0  0  0
  7 15  1  0  0  0  0
 10 11  1  0  0  0  0
 10 12  1  0  0  0  0
 10 19  1  0  0  0  0
 13 14  1  0  0  0  0
 13 17  1  0  0  0  0
 13 24  2  0  0  0  0
 16 32  1  0  0  0  0
 16 42  2  0  0  0  0
 16 43  1  0  0  0  0
 17 33  2  0  0  0  0
 17 38  1  0  0  0  0
 18 41  2  0  0  0  0
 18 44  1  0  0  0  0
 18 45  1  0  0  0  0
 19 20  1  0  0  0  0
 19 45  1  0  0  0  0
 21 22  1  0  0  0  0
 21 29  1  0  0  0  0
 21 30  2  0  0  0  0
 22 23  1  0  0  0  0
 22 32  2  0  0  0  0
 24 25  1  0  0  0  0
 24 39  1  0  0  0  0
 25 26  1  0  0  0  0
 25 27  2  0  0  0  0
 27 28  1  0  0  0  0
 27 33  1  0  0  0  0
 29 43  1  0  0  0  0
 29 44  2  0  0  0  0
 30 31  1  0  0  0  0
 30 41  1  0  0  0  0
 32 40  1  0  0  0  0
 33 40  1  0  0  0  0
 34 35  1  0  0  0  0
 34 36  1  0  0  0  0
 34 37  1  0  0  0  0
 34 43  1  0  0  0  0
 45 46  1  0  0  0  0
M  END
$$$$
p38_goldstein_08_2h.C
  MOE2024           3D
p38_goldstein_08_2h
 46 49  0  0  0  0  0  0  0  0999 V2000
   38.2970   24.9800   39.7730 C   0  0  0  0  0  0  0  0  0  0  0  0
   38.6009   24.0658   39.2631 H   0  0  0  0  0  0  0  0  0  0  0  0
   38.4835   25.8365   39.1251 H   0  0  0  0  0  0  0  0  0  0  0  0
   39.0920   25.1340   41.0720 C   0  0  0  0  0  0  0  0  0  0  0  0
   38.8092   26.0672   41.5591 H   0  0  0  0  0  0  0  0  0  0  0  0
   40.1574   25.1523   40.8425 H   0  0  0  0  0  0  0  0  0  0  0  0
   37.4340   23.8990   42.3230 C   0  0  0  0  0  0  0  0  0  0  0  0
   37.3164   23.0211   42.9582 H   0  0  0  0  0  0  0  0  0  0  0  0
   37.1187   24.7878   42.8695 H   0  0  0  0  0  0  0  0  0  0  0  0
   36.5640   23.7390   41.0750 C   0  0  0  0  0  0  0  0  0  0  0  0
   35.5137   23.7244   41.3661 H   0  0  0  0  0  0  0  0  0  0  0  0
   36.8159   22.8030   40.5764 H   0  0  0  0  0  0  0  0  0  0  0  0
   30.8350   30.5460   33.6160 C   0  0  0  0  0  0  0  0  0  0  0  0
   29.8290   30.2165   33.8301 H   0  0  0  0  0  0  0  0  0  0  0  0
   38.8150   24.0350   41.9540 O   0  0  0  0  0  0  0  0  0  0  0  0
   35.2410   30.3490   37.3210 C   0  0  0  0  0  0  0  0  0  0  0  0
   31.7830   30.6110   34.6350 C   0  0  0  0  0  0  0  0  0  0  0  0
   35.6140   25.6240   38.0940 C   0  0  0  0  0  0  0  0  0  0  0  0
   36.8090   24.9080   40.1150 C   0  0  0  0  0  0  0  0  0  0  0  0
   36.4892   25.8475   40.5656 H   0  0  0  0  0  0  0  0  0  0  0  0
   34.7100   27.6810   36.5310 C   0  0  0  0  0  0  0  0  0  0  0  0
   34.2440   28.7240   35.7240 C   0  0  0  0  0  0  0  0  0  0  0  0
   33.6969   28.4999   34.8202 H   0  0  0  0  0  0  0  0  0  0  0  0
   31.1930   30.9090   32.3180 C   0  0  0  0  0  0  0  0  0  0  0  0
   30.4607   30.8588   31.5257 H   0  0  0  0  0  0  0  0  0  0  0  0
   32.4860   31.3350   32.0370 C   0  0  0  0  0  0  0  0  0  0  0  0
   32.7594   31.6084   31.0286 H   0  0  0  0  0  0  0  0  0  0  0  0
   33.4280   31.4080   33.0610 C   0  0  0  0  0  0  0  0  0  0  0  0
   34.4299   31.7510   32.8488 H   0  0  0  0  0  0  0  0  0  0  0  0
   35.4200   27.9480   37.7070 C   0  0  0  0  0  0  0  0  0  0  0  0
   34.4800   26.3490   36.1740 C   0  0  0  0  0  0  0  0  0  0  0  0
   33.9374   26.1220   35.2682 H   0  0  0  0  0  0  0  0  0  0  0  0
   34.4820   30.0550   36.0800 C   0  0  0  0  0  0  0  0  0  0  0  0
   33.0800   31.0400   34.3550 C   0  0  0  0  0  0  0  0  0  0  0  0
   36.4500   29.5370   39.3560 C   0  0  0  0  0  0  0  0  0  0  0  0
   36.5574   30.6127   39.4951 H   0  0  0  0  0  0  0  0  0  0  0  0
   37.4368   29.0795   39.2848 H   0  0  0  0  0  0  0  0  0  0  0  0
   35.9132   29.1127   40.2045 H   0  0  0  0  0  0  0  0  0  0  0  0
   31.4320   30.2560   35.8800 F   0  0  0  0  0  0  0  0  0  0  0  0
   34.0420   31.1260   35.3340 S   0  0  0  0  0  0  0  0  0  0  0  0
   34.9300   25.3500   36.9510 N   0  0  0  0  0  0  0  0  0  0  0  0
   35.4550   31.5390   37.6440 O   0  0  0  0  0  0  0  0  0  0  0  0
   35.6970   29.2750   38.1180 N   0  0  0  0  0  0  0  0  0  0  0  0
   35.8510   26.9090   38.4580 N   0  0  0  0  0  0  0  0  0  0  0  0
   36.0750   24.6170   38.8850 N   0  0  0  0  0  0  0  0  0  0  0  0
   35.9079   23.6571   38.6189 H   0  0  0  0  0  0  0  0  0  0  0  0
  1  2  1  0  0  0  0
  1  3  1  0  0  0  0
  1  4  1  0  0  0  0
  1 19  1  0  0  0  0
  4  5  1  0  0  0  0
  4  6  1  0  0  0  0
  4 15  1  0  0  0  0
  7  8  1  0  0  0  0
  7  9  1  0  0  0  0
  7 10  1  0  0  0  0
  7 15  1  0  0  0  0
 10 11  1  0  0  0  0
 10 12  1  0  0  0  0
 10 19  1  0  0  0  0
 13 14  1  0  0  0  0
 13 17  1  0  0  0  0
 13 24  2  0  0  0  0
 16 33  1  0  0  0  0
 16 42  2  0  0  0  0
 16 43  1  0  0  0  0
 17 34  2  0  0  0  0
 17 39  1  0  0  0  0
 18 41  2  0  0  0  0
 18 44  1  0  0  0  0
 18 45  1  0  0  0  0
 19 20  1  0  0  0  0
 19 45  1  0  0  0  0
 21 22  1  0  0  0  0
 21 30  1  0  0  0  0
 21 31  2  0  0  0  0
 22 23  1  0  0  0  0
 22 33  2  0  0  0  0
 24 25  1  0  0  0  0
 24 26  1  0  0  0  0
 26 27  1  0  0  0  0
 26 28  2  0  0  0  0
 28 29  1  0  0  0  0
 28 34  1  0  0  0  0
 30 43  1  0  0  0  0
 30 44  2  0  0  0  0
 31 32  1  0  0  0  0
 31 41  1  0  0  0  0
 33 40  1  0  0  0  0
 34 40  1  0  0  0  0
 35 36  1  0  0  0  0
 35 37  1  0  0  0  0
 35 38  1  0  0  0  0
 35 43  1  0  0  0  0
 45 46  1  0  0  0  0
M  END
$$$$
p38_goldstein_09_2i.C
  MOE2024           3D
p38_goldstein_09_2i
 48 51  0  0  0  0  0  0  0  0999 V2000
   38.2970   24.9800   39.7730 C   0  0  0  0  0  0  0  0  0  0  0  0
   38.6009   24.0658   39.2631 H   0  0  0  0  0  0  0  0  0  0  0  0
   38.4835   25.8365   39.1251 H   0  0  0  0  0  0  0  0  0  0  0  0
   39.0920   25.1340   41.0720 C   0  0  0  0  0  0  0  0  0  0  0  0
   38.8092   26.0672   41.5591 H   0  0  0  0  0  0  0  0  0  0  0  0
   40.1574   25.1523   40.8425 H   0  0  0  0  0  0  0  0  0  0  0  0
   37.4340   23.8990   42.3230 C   0  0  0  0  0  0  0  0  0  0  0  0
   37.3164   23.0211   42.9582 H   0  0  0  0  0  0  0  0  0  0  0  0
   37.1187   24.7878   42.8695 H   0  0  0  0  0  0  0  0  0  0  0  0
   36.5640   23.7390   41.0750 C   0  0  0  0  0  0  0  0  0  0  0  0
   35.5137   23.7244   41.3661 H   0  0  0  0  0  0  0  0  0  0  0  0
   36.8159   22.8030   40.5764 H   0  0  0  0  0  0  0  0  0  0  0  0
   30.8350   30.5460   33.6160 C   0  0  0  0  0  0  0  0  0  0  0  0
   29.8290   30.2165   33.8301 H   0  0  0  0  0  0  0  0  0  0  0  0
   38.8150   24.0350   41.9540 O   0  0  0  0  0  0  0  0  0  0  0  0
   35.2410   30.3490   37.3210 C   0  0  0  0  0  0  0  0  0  0  0  0
   31.7830   30.6110   34.6350 C   0  0  0  0  0  0  0  0  0  0  0  0
   35.6140   25.6240   38.0940 C   0  0  0  0  0  0  0  0  0  0  0  0
   36.8090   24.9080   40.1150 C   0  0  0  0  0  0  0  0  0  0  0  0
   36.4892   25.8475   40.5656 H   0  0  0  0  0  0  0  0  0  0  0  0
   34.7100   27.6810   36.5310 C   0  0  0  0  0  0  0  0  0  0  0  0
   34.2440   28.7240   35.7240 C   0  0  0  0  0  0  0  0  0  0  0  0
   33.6969   28.4999   34.8202 H   0  0  0  0  0  0  0  0  0  0  0  0
   31.1930   30.9090   32.3180 C   0  0  0  0  0  0  0  0  0  0  0  0
   30.4607   30.8588   31.5257 H   0  0  0  0  0  0  0  0  0  0  0  0
   32.4860   31.3350   32.0370 C   0  0  0  0  0  0  0  0  0  0  0  0
   32.7594   31.6084   31.0286 H   0  0  0  0  0  0  0  0  0  0  0  0
   33.4280   31.4080   33.0610 C   0  0  0  0  0  0  0  0  0  0  0  0
   34.4299   31.7510   32.8488 H   0  0  0  0  0  0  0  0  0  0  0  0
   35.4200   27.9480   37.7070 C   0  0  0  0  0  0  0  0  0  0  0  0
   34.4800   26.3490   36.1740 C   0  0  0  0  0  0  0  0  0  0  0  0
   33.9374   26.1220   35.2682 H   0  0  0  0  0  0  0  0  0  0  0  0
   34.4820   30.0550   36.0800 C   0  0  0  0  0  0  0  0  0  0  0  0
   33.0800   31.0400   34.3550 C   0  0  0  0  0  0  0  0  0  0  0  0
   36.4500   29.5370   39.3560 C   0  0  0  0  0  0  0  0  0  0  0  0
   36.5574   30.6127   39.4951 H   0  0  0  0  0  0  0  0  0  0  0  0
   37.4368   29.0795   39.2848 H   0  0  0  0  0  0  0  0  0  0  0  0
   35.9132   29.1127   40.2045 H   0  0  0  0  0  0  0  0  0  0  0  0
   31.4320   30.2560   35.8800 F   0  0  0  0  0  0  0  0  0  0  0  0
   34.0420   31.1260   35.3340 C   0  0  0  0  0  0  0  0  0  0  0  0
   34.9283   31.5271   34.8423 H   0  0  0  0  0  0  0  0  0  0  0  0
   33.6659   31.8526   36.0542 H   0  0  0  0  0  0  0  0  0  0  0  0
   34.9300   25.3500   36.9510 N   0  0  0  0  0  0  0  0  0  0  0  0
   35.4550   31.5390   37.6440 O   0  0  0  0  0  0  0  0  0  0  0  0
   35.6970   29.2750   38.1180 N   0  0  0  0  0  0  0  0  0  0  0  0
   35.8510   26.9090   38.4580 N   0  0  0  0  0  0  0  0  0  0  0  0
   36.0750   24.6170   38.8850 N   0  0  0  0  0  0  0  0  0  0  0  0
   35.9079   23.6571   38.6189 H   0  0  0  0  0  0  0  0  0  0  0  0
  1  2  1  0  0  0  0
  1  3  1  0  0  0  0
  1  4  1  0  0  0  0
  1 19  1  0  0  0  0
  4  5  1  0  0  0  0
  4  6  1  0  0  0  0
  4 15  1  0  0  0  0
  7  8  1  0  0  0  0
  7  9  1  0  0  0  0
  7 10  1  0  0  0  0
  7 15  1  0  0  0  0
 10 11  1  0  0  0  0
 10 12  1  0  0  0  0
 10 19  1  0  0  0  0
 13 14  1  0  0  0  0
 13 17  1  0  0  0  0
 13 24  2  0  0  0  0
 16 33  1  0  0  0  0
 16 44  2  0  0  0  0
 16 45  1  0  0  0  0
 17 34  2  0  0  0  0
 17 39  1  0  0  0  0
 18 43  2  0  0  0  0
 18 46  1  0  0  0  0
 18 47  1  0  0  0  0
 19 20  1  0  0  0  0
 19 47  1  0  0  0  0
 21 22  1  0  0  0  0
 21 30  1  0  0  0  0
 21 31  2  0  0  0  0
 22 23  1  0  0  0  0
 22 33  2  0  0  0  0
 24 25  1  0  0  0  0
 24 26  1  0  0  0  0
 26 27  1  0  0  0  0
 26 28  2  0  0  0  0
 28 29  1  0  0  0  0
 28 34  1  0  0  0  0
 30 45  1  0  0  0  0
 30 46  2  0  0  0  0
 31 32  1  0  0  0  0
 31 43  1  0  0  0  0
 33 40  1  0  0  0  0
 34 40  1  0  0  0  0
 35 36  1  0  0  0  0
 35 37  1  0  0  0  0
 35 38  1  0  0  0  0
 35 45  1  0  0  0  0
 40 41  1  0  0  0  0
 40 42  1  0  0  0  0
 47 48  1  0  0  0  0
M  END
$$$$
p38_goldstein_10_2j.C
  MOE2024           3D
p38_goldstein_10_2j
 48 51  0  0  0  0  0  0  0  0999 V2000
   38.2970   24.9800   39.7730 C   0  0  0  0  0  0  0  0  0  0  0  0
   38.6009   24.0658   39.2631 H   0  0  0  0  0  0  0  0  0  0  0  0
   38.4835   25.8365   39.1251 H   0  0  0  0  0  0  0  0  0  0  0  0
   39.0920   25.1340   41.0720 C   0  0  0  0  0  0  0  0  0  0  0  0
   38.8092   26.0672   41.5591 H   0  0  0  0  0  0  0  0  0  0  0  0
   40.1574   25.1523   40.8425 H   0  0  0  0  0  0  0  0  0  0  0  0
   37.4340   23.8990   42.3230 C   0  0  0  0  0  0  0  0  0  0  0  0
   37.3164   23.0211   42.9582 H   0  0  0  0  0  0  0  0  0  0  0  0
   37.1187   24.7878   42.8695 H   0  0  0  0  0  0  0  0  0  0  0  0
   36.5640   23.7390   41.0750 C   0  0  0  0  0  0  0  0  0  0  0  0
   35.5137   23.7244   41.3661 H   0  0  0  0  0  0  0  0  0  0  0  0
   36.8159   22.8030   40.5764 H   0  0  0  0  0  0  0  0  0  0  0  0
   30.8350   30.5460   33.6160 C   0  0  0  0  0  0  0  0  0  0  0  0
   29.8290   30.2165   33.8301 H   0  0  0  0  0  0  0  0  0  0  0  0
   38.8150   24.0350   41.9540 O   0  0  0  0  0  0  0  0  0  0  0  0
   35.2410   30.3490   37.3210 C   0  0  0  0  0  0  0  0  0  0  0  0
   31.7830   30.6110   34.6350 C   0  0  0  0  0  0  0  0  0  0  0  0
   35.6140   25.6240   38.0940 C   0  0  0  0  0  0  0  0  0  0  0  0
   36.8090   24.9080   40.1150 C   0  0  0  0  0  0  0  0  0  0  0  0
   36.4892   25.8475   40.5656 H   0  0  0  0  0  0  0  0  0  0  0  0
   34.7100   27.6810   36.5310 C   0  0  0  0  0  0  0  0  0  0  0  0
   34.2440   28.7240   35.7240 C   0  0  0  0  0  0  0  0  0  0  0  0
   33.6969   28.4999   34.8202 H   0  0  0  0  0  0  0  0  0  0  0  0
   31.1930   30.9090   32.3180 C   0  0  0  0  0  0  0  0  0  0  0  0
   32.4860   31.3350   32.0370 C   0  0  0  0  0  0  0  0  0  0  0  0
   32.7594   31.6084   31.0286 H   0  0  0  0  0  0  0  0  0  0  0  0
   33.4280   31.4080   33.0610 C   0  0  0  0  0  0  0  0  0  0  0  0
   34.4299   31.7510   32.8488 H   0  0  0  0  0  0  0  0  0  0  0  0
   35.4200   27.9480   37.7070 C   0  0  0  0  0  0  0  0  0  0  0  0
   34.4800   26.3490   36.1740 C   0  0  0  0  0  0  0  0  0  0  0  0
   33.9374   26.1220   35.2682 H   0  0  0  0  0  0  0  0  0  0  0  0
   34.4820   30.0550   36.0800 C   0  0  0  0  0  0  0  0  0  0  0  0
   33.0800   31.0400   34.3550 C   0  0  0  0  0  0  0  0  0  0  0  0
   36.4500   29.5370   39.3560 C   0  0  0  0  0  0  0  0  0  0  0  0
   36.5574   30.6127   39.4951 H   0  0  0  0  0  0  0  0  0  0  0  0
   37.4368   29.0795   39.2848 H   0  0  0  0  0  0  0  0  0  0  0  0
   35.9132   29.1127   40.2045 H   0  0  0  0  0  0  0  0  0  0  0  0
   31.4320   30.2560   35.8800 F   0  0  0  0  0  0  0  0  0  0  0  0
   30.2920   30.8400   31.3240 F   0  0  0  0  0  0  0  0  0  0  0  0
   34.0420   31.1260   35.3340 C   0  0  0  0  0  0  0  0  0  0  0  0
   34.9283   31.5271   34.8423 H   0  0  0  0  0  0  0  0  0  0  0  0
   33.6659   31.8526   36.0542 H   0  0  0  0  0  0  0  0  0  0  0  0
   34.9300   25.3500   36.9510 N   0  0  0  0  0  0  0  0  0  0  0  0
   35.4550   31.5390   37.6440 O   0  0  0  0  0  0  0  0  0  0  0  0
   35.6970   29.2750   38.1180 N   0  0  0  0  0  0  0  0  0  0  0  0
   35.8510   26.9090   38.4580 N   0  0  0  0  0  0  0  0  0  0  0  0
   36.0750   24.6170   38.8850 N   0  0  0  0  0  0  0  0  0  0  0  0
   35.9079   23.6571   38.6189 H   0  0  0  0  0  0  0  0  0  0  0  0
  1  2  1  0  0  0  0
  1  3  1  0  0  0  0
  1  4  1  0  0  0  0
  1 19  1  0  0  0  0
  4  5  1  0  0  0  0
  4  6  1  0  0  0  0
  4 15  1  0  0  0  0
  7  8  1  0  0  0  0
  7  9  1  0  0  0  0
  7 10  1  0  0  0  0
  7 15  1  0  0  0  0
 10 11  1  0  0  0  0
 10 12  1  0  0  0  0
 10 19  1  0  0  0  0
 13 14  1  0  0  0  0
 13 17  1  0  0  0  0
 13 24  2  0  0  0  0
 16 32  1  0  0  0  0
 16 44  2  0  0  0  0
 16 45  1  0  0  0  0
 17 33  2  0  0  0  0
 17 38  1  0  0  0  0
 18 43  2  0  0  0  0
 18 46  1  0  0  0  0
 18 47  1  0  0  0  0
 19 20  1  0  0  0  0
 19 47  1  0  0  0  0
 21 22  1  0  0  0  0
 21 29  1  0  0  0  0
 21 30  2  0  0  0  0
 22 23  1  0  0  0  0
 22 32  2  0  0  0  0
 24 25  1  0  0  0  0
 24 39  1  0  0  0  0
 25 26  1  0  0  0  0
 25 27  2  0  0  0  0
 27 28  1  0  0  0  0
 27 33  1  0  0  0  0
 29 45  1  0  0  0  0
 29 46  2  0  0  0  0
 30 31  1  0  0  0  0
 30 43  1  0  0  0  0
 32 40  1  0  0  0  0
 33 40  1  0  0  0  0
 34 35  1  0  0  0  0
 34 36  1  0  0  0  0
 34 37  1  0  0  0  0
 34 45  1  0  0  0  0
 40 41  1  0  0  0  0
 40 42  1  0  0  0  0
 47 48  1  0  0  0  0
M  END
$$$$
p38_goldstein_11_2k.C
  MOE2024           3D
p38_goldstein_11_2k
 43 46  0  0  0  0  0  0  0  0999 V2000
   38.2970   24.9800   39.7730 C   0  0  0  0  0  0  0  0  0  0  0  0
   38.6009   24.0658   39.2631 H   0  0  0  0  0  0  0  0  0  0  0  0
   38.4835   25.8365   39.1251 H   0  0  0  0  0  0  0  0  0  0  0  0
   39.0920   25.1340   41.0720 C   0  0  0  0  0  0  0  0  0  0  0  0
   38.8092   26.0672   41.5591 H   0  0  0  0  0  0  0  0  0  0  0  0
   40.1574   25.1523   40.8425 H   0  0  0  0  0  0  0  0  0  0  0  0
   37.4340   23.8990   42.3230 C   0  0  0  0  0  0  0  0  0  0  0  0
   37.3164   23.0211   42.9582 H   0  0  0  0  0  0  0  0  0  0  0  0
   37.1187   24.7878   42.8695 H   0  0  0  0  0  0  0  0  0  0  0  0
   36.5640   23.7390   41.0750 C   0  0  0  0  0  0  0  0  0  0  0  0
   35.5137   23.7244   41.3661 H   0  0  0  0  0  0  0  0  0  0  0  0
   36.8159   22.8030   40.5764 H   0  0  0  0  0  0  0  0  0  0  0  0
   30.8350   30.5460   33.6160 C   0  0  0  0  0  0  0  0  0  0  0  0
   29.8290   30.2165   33.8301 H   0  0  0  0  0  0  0  0  0  0  0  0
   38.8150   24.0350   41.9540 O   0  0  0  0  0  0  0  0  0  0  0  0
   35.2410   30.3490   37.3210 C   0  0  0  0  0  0  0  0  0  0  0  0
   31.7830   30.6110   34.6350 C   0  0  0  0  0  0  0  0  0  0  0  0
   35.6140   25.6240   38.0940 C   0  0  0  0  0  0  0  0  0  0  0  0
   36.8090   24.9080   40.1150 C   0  0  0  0  0  0  0  0  0  0  0  0
   36.4892   25.8475   40.5656 H   0  0  0  0  0  0  0  0  0  0  0  0
   34.7100   27.6810   36.5310 C   0  0  0  0  0  0  0  0  0  0  0  0
   34.2440   28.7240   35.7240 C   0  0  0  0  0  0  0  0  0  0  0  0
   33.6969   28.4999   34.8202 H   0  0  0  0  0  0  0  0  0  0  0  0
   31.1930   30.9090   32.3180 C   0  0  0  0  0  0  0  0  0  0  0  0
   32.4860   31.3350   32.0370 C   0  0  0  0  0  0  0  0  0  0  0  0
   32.7594   31.6084   31.0286 H   0  0  0  0  0  0  0  0  0  0  0  0
   33.4280   31.4080   33.0610 C   0  0  0  0  0  0  0  0  0  0  0  0
   34.4299   31.7510   32.8488 H   0  0  0  0  0  0  0  0  0  0  0  0
   35.4200   27.9480   37.7070 C   0  0  0  0  0  0  0  0  0  0  0  0
   34.4800   26.3490   36.1740 C   0  0  0  0  0  0  0  0  0  0  0  0
   33.9374   26.1220   35.2682 H   0  0  0  0  0  0  0  0  0  0  0  0
   34.4820   30.0550   36.0800 C   0  0  0  0  0  0  0  0  0  0  0  0
   33.0800   31.0400   34.3550 C   0  0  0  0  0  0  0  0  0  0  0  0
   31.4320   30.2560   35.8800 F   0  0  0  0  0  0  0  0  0  0  0  0
   30.2920   30.8400   31.3240 F   0  0  0  0  0  0  0  0  0  0  0  0
   34.0420   31.1260   35.3340 O   0  0  0  0  0  0  0  0  0  0  0  0
   34.9300   25.3500   36.9510 N   0  0  0  0  0  0  0  0  0  0  0  0
   35.4550   31.5390   37.6440 O   0  0  0  0  0  0  0  0  0  0  0  0
   35.6970   29.2750   38.1180 N   0  0  0  0  0  0  0  0  0  0  0  0
   36.2129   29.4509   38.9683 H   0  0  0  0  0  0  0  0  0  0  0  0
   35.8510   26.9090   38.4580 N   0  0  0  0  0  0  0  0  0  0  0  0
   36.0750   24.6170   38.8850 N   0  0  0  0  0  0  0  0  0  0  0  0
   35.9079   23.6571   38.6189 H   0  0  0  0  0  0  0  0  0  0  0  0
  1  2  1  0  0  0  0
  1  3  1  0  0  0  0
  1  4  1  0  0  0  0
  1 19  1  0  0  0  0
  4  5  1  0  0  0  0
  4  6  1  0  0  0  0
  4 15  1  0  0  0  0
  7  8  1  0  0  0  0
  7  9  1  0  0  0  0
  7 10  1  0  0  0  0
  7 15  1  0  0  0  0
 10 11  1  0  0  0  0
 10 12  1  0  0  0  0
 10 19  1  0  0  0  0
 13 14  1  0  0  0  0
 13 17  1  0  0  0  0
 13 24  2  0  0  0  0
 16 32  1  0  0  0  0
 16 38  2  0  0  0  0
 16 39  1  0  0  0  0
 17 33  2  0  0  0  0
 17 34  1  0  0  0  0
 18 37  2  0  0  0  0
 18 41  1  0  0  0  0
 18 42  1  0  0  0  0
 19 20  1  0  0  0  0
 19 42  1  0  0  0  0
 21 22  1  0  0  0  0
 21 29  1  0  0  0  0
 21 30  2  0  0  0  0
 22 23  1  0  0  0  0
 22 32  2  0  0  0  0
 24 25  1  0  0  0  0
 24 35  1  0  0  0  0
 25 26  1  0  0  0  0
 25 27  2  0  0  0  0
 27 28  1  0  0  0  0
 27 33  1  0  0  0  0
 29 39  1  0  0  0  0
 29 41  2  0  0  0  0
 30 31  1  0  0  0  0
 30 37  1  0  0  0  0
 32 36  1  0  0  0  0
 33 36  1  0  0  0  0
 39 40  1  0  0  0  0
 42 43  1  0  0  0  0
M  END
$$$$
p38_goldstein_12_2l.C
  MOE2024           3D
p38_goldstein_12_2l
 49 52  0  0  0  0  0  0  0  0999 V2000
   38.2970   24.9800   39.7730 C   0  0  0  0  0  0  0  0  0  0  0  0
   38.6009   24.0658   39.2631 H   0  0  0  0  0  0  0  0  0  0  0  0
   38.4835   25.8365   39.1251 H   0  0  0  0  0  0  0  0  0  0  0  0
   39.0920   25.1340   41.0720 C   0  0  0  0  0  0  0  0  0  0  0  0
   38.8092   26.0672   41.5591 H   0  0  0  0  0  0  0  0  0  0  0  0
   40.1574   25.1523   40.8425 H   0  0  0  0  0  0  0  0  0  0  0  0
   37.4340   23.8990   42.3230 C   0  0  0  0  0  0  0  0  0  0  0  0
   37.3164   23.0211   42.9582 H   0  0  0  0  0  0  0  0  0  0  0  0
   37.1187   24.7878   42.8695 H   0  0  0  0  0  0  0  0  0  0  0  0
   36.5640   23.7390   41.0750 C   0  0  0  0  0  0  0  0  0  0  0  0
   35.5137   23.7244   41.3661 H   0  0  0  0  0  0  0  0  0  0  0  0
   36.8159   22.8030   40.5764 H   0  0  0  0  0  0  0  0  0  0  0  0
   30.8350   30.5460   33.6160 C   0  0  0  0  0  0  0  0  0  0  0  0
   29.8290   30.2165   33.8301 H   0  0  0  0  0  0  0  0  0  0  0  0
   38.8150   24.0350   41.9540 O   0  0  0  0  0  0  0  0  0  0  0  0
   35.2410   30.3490   37.3210 C   0  0  0  0  0  0  0  0  0  0  0  0
   31.7830   30.6110   34.6350 C   0  0  0  0  0  0  0  0  0  0  0  0
   35.6140   25.6240   38.0940 C   0  0  0  0  0  0  0  0  0  0  0  0
   36.8090   24.9080   40.1150 C   0  0  0  0  0  0  0  0  0  0  0  0
   36.4892   25.8475   40.5656 H   0  0  0  0  0  0  0  0  0  0  0  0
   34.7100   27.6810   36.5310 C   0  0  0  0  0  0  0  0  0  0  0  0
   34.2440   28.7240   35.7240 C   0  0  0  0  0  0  0  0  0  0  0  0
   33.6969   28.4999   34.8202 H   0  0  0  0  0  0  0  0  0  0  0  0
   31.1930   30.9090   32.3180 C   0  0  0  0  0  0  0  0  0  0  0  0
   32.4860   31.3350   32.0370 C   0  0  0  0  0  0  0  0  0  0  0  0
   32.7594   31.6084   31.0286 H   0  0  0  0  0  0  0  0  0  0  0  0
   33.4280   31.4080   33.0610 C   0  0  0  0  0  0  0  0  0  0  0  0
   34.4299   31.7510   32.8488 H   0  0  0  0  0  0  0  0  0  0  0  0
   35.4200   27.9480   37.7070 C   0  0  0  0  0  0  0  0  0  0  0  0
   34.4800   26.3490   36.1740 C   0  0  0  0  0  0  0  0  0  0  0  0
   33.9374   26.1220   35.2682 H   0  0  0  0  0  0  0  0  0  0  0  0
   34.4820   30.0550   36.0800 C   0  0  0  0  0  0  0  0  0  0  0  0
   33.0800   31.0400   34.3550 C   0  0  0  0  0  0  0  0  0  0  0  0
   31.4320   30.2560   35.8800 F   0  0  0  0  0  0  0  0  0  0  0  0
   30.2920   30.8400   31.3240 F   0  0  0  0  0  0  0  0  0  0  0  0
   34.0420   31.1260   35.3340 O   0  0  0  0  0  0  0  0  0  0  0  0
   34.9300   25.3500   36.9510 N   0  0  0  0  0  0  0  0  0  0  0  0
   35.4550   31.5390   37.6440 O   0  0  0  0  0  0  0  0  0  0  0  0
   35.6970   29.2750   38.1180 N   0  0  0  0  0  0  0  0  0  0  0  0
   36.4305   29.5251   39.3269 C   0  0  0  0  0  0  0  0  0  0  0  0
   36.6919   28.5766   39.7961 H   0  0  0  0  0  0  0  0  0  0  0  0
   35.5802   30.3359   40.2722 C   0  0  0  0  0  0  0  0  0  0  0  0
   36.1371   30.5258   41.1898 H   0  0  0  0  0  0  0  0  0  0  0  0
   34.6703   29.7837   40.5070 H   0  0  0  0  0  0  0  0  0  0  0  0
   35.3188   31.2844   39.8031 H   0  0  0  0  0  0  0  0  0  0  0  0
   37.3430   30.0789   39.0916 H   0  0  0  0  0  0  0  0  0  0  0  0
   35.8510   26.9090   38.4580 N   0  0  0  0  0  0  0  0  0  0  0  0
   36.0750   24.6170   38.8850 N   0  0  0  0  0  0  0  0  0  0  0  0
   35.9079   23.6571   38.6189 H   0  0  0  0  0  0  0  0  0  0  0  0
  1  2  1  0  0  0  0
  1  3  1  0  0  0  0
  1  4  1  0  0  0  0
  1 19  1  0  0  0  0
  4  5  1  0  0  0  0
  4  6  1  0  0  0  0
  4 15  1  0  0  0  0
  7  8  1  0  0  0  0
  7  9  1  0  0  0  0
  7 10  1  0  0  0  0
  7 15  1  0  0  0  0
 10 11  1  0  0  0  0
 10 12  1  0  0  0  0
 10 19  1  0  0  0  0
 13 14  1  0  0  0  0
 13 17  1  0  0  0  0
 13 24  2  0  0  0  0
 16 32  1  0  0  0  0
 16 38  2  0  0  0  0
 16 39  1  0  0  0  0
 17 33  2  0  0  0  0
 17 34  1  0  0  0  0
 18 37  2  0  0  0  0
 18 47  1  0  0  0  0
 18 48  1  0  0  0  0
 19 20  1  0  0  0  0
 19 48  1  0  0  0  0
 21 22  1  0  0  0  0
 21 29  1  0  0  0  0
 21 30  2  0  0  0  0
 22 23  1  0  0  0  0
 22 32  2  0  0  0  0
 24 25  1  0  0  0  0
 24 35  1  0  0  0  0
 25 26  1  0  0  0  0
 25 27  2  0  0  0  0
 27 28  1  0  0  0  0
 27 33  1  0  0  0  0
 29 39  1  0  0  0  0
 29 47  2  0  0  0  0
 30 31  1  0  0  0  0
 30 37  1  0  0  0  0
 32 36  1  0  0  0  0
 33 36  1  0  0  0  0
 39 40  1  0  0  0  0
 40 41  1  0  0  0  0
 40 42  1  0  0  0  0
 40 46  1  0  0  0  0
 42 43  1  0  0  0  0
 42 44  1  0  0  0  0
 42 45  1  0  0  0  0
 48 49  1  0  0  0  0
M  END
$$$$
p38_goldstein_13_2m.C
  MOE2024           3D
p38_goldstein_13_2m
 50 54  0  0  0  0  0  0  0  0999 V2000
   38.2970   24.9800   39.7730 C   0  0  0  0  0  0  0  0  0  0  0  0
   38.6009   24.0658   39.2631 H   0  0  0  0  0  0  0  0  0  0  0  0
   38.4835   25.8365   39.1251 H   0  0  0  0  0  0  0  0  0  0  0  0
   39.0920   25.1340   41.0720 C   0  0  0  0  0  0  0  0  0  0  0  0
   38.8092   26.0672   41.5591 H   0  0  0  0  0  0  0  0  0  0  0  0
   40.1574   25.1523   40.8425 H   0  0  0  0  0  0  0  0  0  0  0  0
   37.4340   23.8990   42.3230 C   0  0  0  0  0  0  0  0  0  0  0  0
   37.3164   23.0211   42.9582 H   0  0  0  0  0  0  0  0  0  0  0  0
   37.1187   24.7878   42.8695 H   0  0  0  0  0  0  0  0  0  0  0  0
   36.5640   23.7390   41.0750 C   0  0  0  0  0  0  0  0  0  0  0  0
   35.5137   23.7244   41.3661 H   0  0  0  0  0  0  0  0  0  0  0  0
   36.8159   22.8030   40.5764 H   0  0  0  0  0  0  0  0  0  0  0  0
   30.8350   30.5460   33.6160 C   0  0  0  0  0  0  0  0  0  0  0  0
   29.8290   30.2165   33.8301 H   0  0  0  0  0  0  0  0  0  0  0  0
   38.8150   24.0350   41.9540 O   0  0  0  0  0  0  0  0  0  0  0  0
   35.2410   30.3490   37.3210 C   0  0  0  0  0  0  0  0  0  0  0  0
   31.7830   30.6110   34.6350 C   0  0  0  0  0  0  0  0  0  0  0  0
   35.6140   25.6240   38.0940 C   0  0  0  0  0  0  0  0  0  0  0  0
   36.8090   24.9080   40.1150 C   0  0  0  0  0  0  0  0  0  0  0  0
   36.4892   25.8475   40.5656 H   0  0  0  0  0  0  0  0  0  0  0  0
   34.7100   27.6810   36.5310 C   0  0  0  0  0  0  0  0  0  0  0  0
   34.2440   28.7240   35.7240 C   0  0  0  0  0  0  0  0  0  0  0  0
   33.6969   28.4999   34.8202 H   0  0  0  0  0  0  0  0  0  0  0  0
   31.1930   30.9090   32.3180 C   0  0  0  0  0  0  0  0  0  0  0  0
   32.4860   31.3350   32.0370 C   0  0  0  0  0  0  0  0  0  0  0  0
   32.7594   31.6084   31.0286 H   0  0  0  0  0  0  0  0  0  0  0  0
   33.4280   31.4080   33.0610 C   0  0  0  0  0  0  0  0  0  0  0  0
   34.4299   31.7510   32.8488 H   0  0  0  0  0  0  0  0  0  0  0  0
   35.4200   27.9480   37.7070 C   0  0  0  0  0  0  0  0  0  0  0  0
   34.4800   26.3490   36.1740 C   0  0  0  0  0  0  0  0  0  0  0  0
   33.9374   26.1220   35.2682 H   0  0  0  0  0  0  0  0  0  0  0  0
   34.4820   30.0550   36.0800 C   0  0  0  0  0  0  0  0  0  0  0  0
   33.0800   31.0400   34.3550 C   0  0  0  0  0  0  0  0  0  0  0  0
   31.4320   30.2560   35.8800 F   0  0  0  0  0  0  0  0  0  0  0  0
   30.2920   30.8400   31.3240 F   0  0  0  0  0  0  0  0  0  0  0  0
   34.0420   31.1260   35.3340 O   0  0  0  0  0  0  0  0  0  0  0  0
   34.9300   25.3500   36.9510 N   0  0  0  0  0  0  0  0  0  0  0  0
   35.4550   31.5390   37.6440 O   0  0  0  0  0  0  0  0  0  0  0  0
   35.6970   29.2750   38.1180 N   0  0  0  0  0  0  0  0  0  0  0  0
   36.4195   29.5023   39.3485 C   0  0  0  0  0  0  0  0  0  0  0  0
   37.8224   28.9821   39.5648 C   0  0  0  0  0  0  0  0  0  0  0  0
   38.3187   28.4792   38.7434 H   0  0  0  0  0  0  0  0  0  0  0  0
   38.0627   28.5828   40.5425 H   0  0  0  0  0  0  0  0  0  0  0  0
   35.7565   29.4779   40.2104 H   0  0  0  0  0  0  0  0  0  0  0  0
   37.5900   30.4529   39.4399 C   0  0  0  0  0  0  0  0  0  0  0  0
   37.6695   31.0636   40.3313 H   0  0  0  0  0  0  0  0  0  0  0  0
   37.9349   30.9435   38.5374 H   0  0  0  0  0  0  0  0  0  0  0  0
   35.8510   26.9090   38.4580 N   0  0  0  0  0  0  0  0  0  0  0  0
   36.0750   24.6170   38.8850 N   0  0  0  0  0  0  0  0  0  0  0  0
   35.9079   23.6571   38.6189 H   0  0  0  0  0  0  0  0  0  0  0  0
  1  2  1  0  0  0  0
  1  3  1  0  0  0  0
  1  4  1  0  0  0  0
  1 19  1  0  0  0  0
  4  5  1  0  0  0  0
  4  6  1  0  0  0  0
  4 15  1  0  0  0  0
  7  8  1  0  0  0  0
  7  9  1  0  0  0  0
  7 10  1  0  0  0  0
  7 15  1  0  0  0  0
 10 11  1  0  0  0  0
 10 12  1  0  0  0  0
 10 19  1  0  0  0  0
 13 14  1  0  0  0  0
 13 17  1  0  0  0  0
 13 24  2  0  0  0  0
 16 32  1  0  0  0  0
 16 38  2  0  0  0  0
 16 39  1  0  0  0  0
 17 33  2  0  0  0  0
 17 34  1  0  0  0  0
 18 37  2  0  0  0  0
 18 48  1  0  0  0  0
 18 49  1  0  0  0  0
 19 20  1  0  0  0  0
 19 49  1  0  0  0  0
 21 22  1  0  0  0  0
 21 29  1  0  0  0  0
 21 30  2  0  0  0  0
 22 23  1  0  0  0  0
 22 32  2  0  0  0  0
 24 25  1  0  0  0  0
 24 35  1  0  0  0  0
 25 26  1  0  0  0  0
 25 27  2  0  0  0  0
 27 28  1  0  0  0  0
 27 33  1  0  0  0  0
 29 39  1  0  0  0  0
 29 48  2  0  0  0  0
 30 31  1  0  0  0  0
 30 37  1  0  0  0  0
 32 36  1  0  0  0  0
 33 36  1  0  0  0  0
 39 40  1  0  0  0  0
 40 41  1  0  0  0  0
 40 44  1  0  0  0  0
 40 45  1  0  0  0  0
 41 42  1  0  0  0  0
 41 43  1  0  0  0  0
 41 45  1  0  0  0  0
 45 46  1  0  0  0  0
 45 47  1  0  0  0  0
 49 50  1  0  0  0  0
M  END
$$$$
p38_goldstein_14_2n.C
  MOE2024           3D
p38_goldstein_14_2n
 53 56  0  0  0  0  0  0  0  0999 V2000
   38.2970   24.9800   39.7730 C   0  0  0  0  0  0  0  0  0  0  0  0
   38.6009   24.0658   39.2631 H   0  0  0  0  0  0  0  0  0  0  0  0
   38.4835   25.8365   39.1251 H   0  0  0  0  0  0  0  0  0  0  0  0
   39.0920   25.1340   41.0720 C   0  0  0  0  0  0  0  0  0  0  0  0
   38.8092   26.0672   41.5591 H   0  0  0  0  0  0  0  0  0  0  0  0
   40.1574   25.1523   40.8425 H   0  0  0  0  0  0  0  0  0  0  0  0
   37.4340   23.8990   42.3230 C   0  0  0  0  0  0  0  0  0  0  0  0
   37.3164   23.0211   42.9582 H   0  0  0  0  0  0  0  0  0  0  0  0
   37.1187   24.7878   42.8695 H   0  0  0  0  0  0  0  0  0  0  0  0
   36.5640   23.7390   41.0750 C   0  0  0  0  0  0  0  0  0  0  0  0
   35.5137   23.7244   41.3661 H   0  0  0  0  0  0  0  0  0  0  0  0
   36.8159   22.8030   40.5764 H   0  0  0  0  0  0  0  0  0  0  0  0
   30.8350   30.5460   33.6160 C   0  0  0  0  0  0  0  0  0  0  0  0
   29.8290   30.2165   33.8301 H   0  0  0  0  0  0  0  0  0  0  0  0
   38.8150   24.0350   41.9540 O   0  0  0  0  0  0  0  0  0  0  0  0
   35.2410   30.3490   37.3210 C   0  0  0  0  0  0  0  0  0  0  0  0
   31.7830   30.6110   34.6350 C   0  0  0  0  0  0  0  0  0  0  0  0
   35.6140   25.6240   38.0940 C   0  0  0  0  0  0  0  0  0  0  0  0
   36.8090   24.9080   40.1150 C   0  0  0  0  0  0  0  0  0  0  0  0
   36.4892   25.8475   40.5656 H   0  0  0  0  0  0  0  0  0  0  0  0
   34.7100   27.6810   36.5310 C   0  0  0  0  0  0  0  0  0  0  0  0
   34.2440   28.7240   35.7240 C   0  0  0  0  0  0  0  0  0  0  0  0
   33.6969   28.4999   34.8202 H   0  0  0  0  0  0  0  0  0  0  0  0
   31.1930   30.9090   32.3180 C   0  0  0  0  0  0  0  0  0  0  0  0
   32.4860   31.3350   32.0370 C   0  0  0  0  0  0  0  0  0  0  0  0
   32.7594   31.6084   31.0286 H   0  0  0  0  0  0  0  0  0  0  0  0
   33.4280   31.4080   33.0610 C   0  0  0  0  0  0  0  0  0  0  0  0
   34.4299   31.7510   32.8488 H   0  0  0  0  0  0  0  0  0  0  0  0
   35.4200   27.9480   37.7070 C   0  0  0  0  0  0  0  0  0  0  0  0
   34.4800   26.3490   36.1740 C   0  0  0  0  0  0  0  0  0  0  0  0
   33.9374   26.1220   35.2682 H   0  0  0  0  0  0  0  0  0  0  0  0
   34.4820   30.0550   36.0800 C   0  0  0  0  0  0  0  0  0  0  0  0
   33.0800   31.0400   34.3550 C   0  0  0  0  0  0  0  0  0  0  0  0
   31.4320   30.2560   35.8800 F   0  0  0  0  0  0  0  0  0  0  0  0
   30.2920   30.8400   31.3240 F   0  0  0  0  0  0  0  0  0  0  0  0
   34.0420   31.1260   35.3340 O   0  0  0  0  0  0  0  0  0  0  0  0
   34.9300   25.3500   36.9510 N   0  0  0  0  0  0  0  0  0  0  0  0
   35.4550   31.5390   37.6440 O   0  0  0  0  0  0  0  0  0  0  0  0
   35.6970   29.2750   38.1180 N   0  0  0  0  0  0  0  0  0  0  0  0
   36.4305   29.5251   39.3269 C   0  0  0  0  0  0  0  0  0  0  0  0
   36.6919   28.5766   39.7961 H   0  0  0  0  0  0  0  0  0  0  0  0
   35.8159   30.1112   40.0102 H   0  0  0  0  0  0  0  0  0  0  0  0
   37.6894   30.2891   39.0021 C   0  0  0  0  0  0  0  0  0  0  0  0
   38.4597   30.5517   40.2717 C   0  0  0  0  0  0  0  0  0  0  0  0
   39.6435   31.2701   39.9663 O   0  0  0  0  0  0  0  0  0  0  0  0
   40.1115   31.4223   40.7906 H   0  0  0  0  0  0  0  0  0  0  0  0
   38.7211   29.6032   40.7409 H   0  0  0  0  0  0  0  0  0  0  0  0
   37.8450   31.1378   40.9549 H   0  0  0  0  0  0  0  0  0  0  0  0
   37.4280   31.2376   38.5329 H   0  0  0  0  0  0  0  0  0  0  0  0
   38.3041   29.7030   38.3189 H   0  0  0  0  0  0  0  0  0  0  0  0
   35.8510   26.9090   38.4580 N   0  0  0  0  0  0  0  0  0  0  0  0
   36.0750   24.6170   38.8850 N   0  0  0  0  0  0  0  0  0  0  0  0
   35.9079   23.6571   38.6189 H   0  0  0  0  0  0  0  0  0  0  0  0
  1  2  1  0  0  0  0
  1  3  1  0  0  0  0
  1  4  1  0  0  0  0
  1 19  1  0  0  0  0
  4  5  1  0  0  0  0
  4  6  1  0  0  0  0
  4 15  1  0  0  0  0
  7  8  1  0  0  0  0
  7  9  1  0  0  0  0
  7 10  1  0  0  0  0
  7 15  1  0  0  0  0
 10 11  1  0  0  0  0
 10 12  1  0  0  0  0
 10 19  1  0  0  0  0
 13 14  1  0  0  0  0
 13 17  1  0  0  0  0
 13 24  2  0  0  0  0
 16 32  1  0  0  0  0
 16 38  2  0  0  0  0
 16 39  1  0  0  0  0
 17 33  2  0  0  0  0
 17 34  1  0  0  0  0
 18 37  2  0  0  0  0
 18 51  1  0  0  0  0
 18 52  1  0  0  0  0
 19 20  1  0  0  0  0
 19 52  1  0  0  0  0
 21 22  1  0  0  0  0
 21 29  1  0  0  0  0
 21 30  2  0  0  0  0
 22 23  1  0  0  0  0
 22 32  2  0  0  0  0
 24 25  1  0  0  0  0
 24 35  1  0  0  0  0
 25 26  1  0  0  0  0
 25 27  2  0  0  0  0
 27 28  1  0  0  0  0
 27 33  1  0  0  0  0
 29 39  1  0  0  0  0
 29 51  2  0  0  0  0
 30 31  1  0  0  0  0
 30 37  1  0  0  0  0
 32 36  1  0  0  0  0
 33 36  1  0  0  0  0
 39 40  1  0  0  0  0
 40 41  1  0  0  0  0
 40 42  1  0  0  0  0
 40 43  1  0  0  0  0
 43 44  1  0  0  0  0
 43 49  1  0  0  0  0
 43 50  1  0  0  0  0
 44 45  1  0  0  0  0
 44 47  1  0  0  0  0
 44 48  1  0  0  0  0
 45 46  1  0  0  0  0
 52 53  1  0  0  0  0
M  END
$$$$
p38_goldstein_15_2o
  MOE2024           3D
p38_goldstein_15_2o
 55 58  0  0  0  0  0  0  0  0999 V2000
   38.2970   24.9800   39.7730 C   0  0  0  0  0  0  0  0  0  0  0  0
   38.6009   24.0658   39.2631 H   0  0  0  0  0  0  0  0  0  0  0  0
   38.4835   25.8365   39.1251 H   0  0  0  0  0  0  0  0  0  0  0  0
   39.0920   25.1340   41.0720 C   0  0  0  0  0  0  0  0  0  0  0  0
   38.8092   26.0672   41.5591 H   0  0  0  0  0  0  0  0  0  0  0  0
   40.1574   25.1523   40.8425 H   0  0  0  0  0  0  0  0  0  0  0  0
   37.4340   23.8990   42.3230 C   0  0  0  0  0  0  0  0  0  0  0  0
   37.3164   23.0211   42.9582 H   0  0  0  0  0  0  0  0  0  0  0  0
   37.1187   24.7878   42.8695 H   0  0  0  0  0  0  0  0  0  0  0  0
   36.5640   23.7390   41.0750 C   0  0  0  0  0  0  0  0  0  0  0  0
   35.5137   23.7244   41.3661 H   0  0  0  0  0  0  0  0  0  0  0  0
   36.8159   22.8030   40.5764 H   0  0  0  0  0  0  0  0  0  0  0  0
   30.8350   30.5460   33.6160 C   0  0  0  0  0  0  0  0  0  0  0  0
   29.8290   30.2165   33.8301 H   0  0  0  0  0  0  0  0  0  0  0  0
   38.8150   24.0350   41.9540 O   0  0  0  0  0  0  0  0  0  0  0  0
   35.2410   30.3490   37.3210 C   0  0  0  0  0  0  0  0  0  0  0  0
   31.7830   30.6110   34.6350 C   0  0  0  0  0  0  0  0  0  0  0  0
   35.6140   25.6240   38.0940 C   0  0  0  0  0  0  0  0  0  0  0  0
   36.8090   24.9080   40.1150 C   0  0  0  0  0  0  0  0  0  0  0  0
   36.4892   25.8475   40.5656 H   0  0  0  0  0  0  0  0  0  0  0  0
   34.7100   27.6810   36.5310 C   0  0  0  0  0  0  0  0  0  0  0  0
   34.2440   28.7240   35.7240 C   0  0  0  0  0  0  0  0  0  0  0  0
   33.6969   28.4999   34.8202 H   0  0  0  0  0  0  0  0  0  0  0  0
   31.1930   30.9090   32.3180 C   0  0  0  0  0  0  0  0  0  0  0  0
   32.4860   31.3350   32.0370 C   0  0  0  0  0  0  0  0  0  0  0  0
   32.7594   31.6084   31.0286 H   0  0  0  0  0  0  0  0  0  0  0  0
   33.4280   31.4080   33.0610 C   0  0  0  0  0  0  0  0  0  0  0  0
   34.4299   31.7510   32.8488 H   0  0  0  0  0  0  0  0  0  0  0  0
   35.4200   27.9480   37.7070 C   0  0  0  0  0  0  0  0  0  0  0  0
   34.4800   26.3490   36.1740 C   0  0  0  0  0  0  0  0  0  0  0  0
   33.9374   26.1220   35.2682 H   0  0  0  0  0  0  0  0  0  0  0  0
   34.4820   30.0550   36.0800 C   0  0  0  0  0  0  0  0  0  0  0  0
   33.0800   31.0400   34.3550 C   0  0  0  0  0  0  0  0  0  0  0  0
   31.4320   30.2560   35.8800 F   0  0  0  0  0  0  0  0  0  0  0  0
   30.2920   30.8400   31.3240 F   0  0  0  0  0  0  0  0  0  0  0  0
   34.0420   31.1260   35.3340 O   0  0  0  0  0  0  0  0  0  0  0  0
   34.9300   25.3500   36.9510 N   0  0  0  0  0  0  0  0  0  0  0  0
   35.4550   31.5390   37.6440 O   0  0  0  0  0  0  0  0  0  0  0  0
   35.6970   29.2750   38.1180 N   0  0  0  0  0  0  0  0  0  0  0  0
   36.4305   29.5251   39.3269 C   0  0  0  0  0  0  0  0  0  0  0  0
   36.6919   28.5766   39.7961 H   0  0  0  0  0  0  0  0  0  0  0  0
   35.5802   30.3359   40.2722 C   0  0  0  0  0  0  0  0  0  0  0  0
   34.6703   29.7837   40.5070 H   0  0  0  0  0  0  0  0  0  0  0  0
   35.3188   31.2844   39.8031 H   0  0  0  0  0  0  0  0  0  0  0  0
   37.3430   30.0789   39.0916 H   0  0  0  0  0  0  0  0  0  0  0  0
   35.8510   26.9090   38.4580 N   0  0  0  0  0  0  0  0  0  0  0  0
   36.0750   24.6170   38.8850 N   0  0  0  0  0  0  0  0  0  0  0  0
   35.9079   23.6571   38.6189 H   0  0  0  0  0  0  0  0  0  0  0  0
   36.4487   30.6321   41.7033 S   0  0  0  0  0  0  0  0  0  0  0  0
   35.3939   31.6211   42.7275 C   0  0  0  0  0  0  0  0  0  0  0  0
   34.5138   31.0426   43.0083 H   0  0  0  0  0  0  0  0  0  0  0  0
   35.0843   32.5104   42.1786 H   0  0  0  0  0  0  0  0  0  0  0  0
   35.9348   31.9187   43.6259 H   0  0  0  0  0  0  0  0  0  0  0  0
   36.6380   29.3578   42.3718 O   0  0  0  0  0  0  0  0  0  0  0  0
   37.6031   31.4399   41.3552 O   0  0  0  0  0  0  0  0  0  0  0  0
  1  2  1  0  0  0  0
  1  3  1  0  0  0  0
  1  4  1  0  0  0  0
  1 19  1  0  0  0  0
  4  5  1  0  0  0  0
  4  6  1  0  0  0  0
  4 15  1  0  0  0  0
  7  8  1  0  0  0  0
  7  9  1  0  0  0  0
  7 10  1  0  0  0  0
  7 15  1  0  0  0  0
 10 11  1  0  0  0  0
 10 12  1  0  0  0  0
 10 19  1  0  0  0  0
 13 14  1  0  0  0  0
 13 17  1  0  0  0  0
 13 24  2  0  0  0  0
 16 32  1  0  0  0  0
 16 38  2  0  0  0  0
 16 39  1  0  0  0  0
 17 33  2  0  0  0  0
 17 34  1  0  0  0  0
 18 37  2  0  0  0  0
 18 46  1  0  0  0  0
 18 47  1  0  0  0  0
 19 20  1  0  0  0  0
 19 47  1  0  0  0  0
 21 22  1  0  0  0  0
 21 29  1  0  0  0  0
 21 30  2  0  0  0  0
 22 23  1  0  0  0  0
 22 32  2  0  0  0  0
 24 25  1  0  0  0  0
 24 35  1  0  0  0  0
 25 26  1  0  0  0  0
 25 27  2  0  0  0  0
 27 28  1  0  0  0  0
 27 33  1  0  0  0  0
 29 39  1  0  0  0  0
 29 46  2  0  0  0  0
 30 31  1  0  0  0  0
 30 37  1  0  0  0  0
 32 36  1  0  0  0  0
 33 36  1  0  0  0  0
 39 40  1  0  0  0  0
 40 41  1  0  0  0  0
 40 42  1  0  0  0  0
 40 45  1  0  0  0  0
 42 43  1  0  0  0  0
 42 44  1  0  0  0  0
 42 49  1  0  0  0  0
 47 48  1  0  0  0  0
 49 50  1  0  0  0  0
 49 54  2  0  0  0  0
 49 55  2  0  0  0  0
 50 51  1  0  0  0  0
 50 52  1  0  0  0  0
 50 53  1  0  0  0  0
M  END
$$$$
p38_goldstein_16_2p.C
  MOE2024           3D
p38_goldstein_16_2p
 58 61  0  0  0  0  0  0  0  0999 V2000
   38.2970   24.9800   39.7730 C   0  0  0  0  0  0  0  0  0  0  0  0
   38.6009   24.0658   39.2631 H   0  0  0  0  0  0  0  0  0  0  0  0
   38.4835   25.8365   39.1251 H   0  0  0  0  0  0  0  0  0  0  0  0
   39.0920   25.1340   41.0720 C   0  0  0  0  0  0  0  0  0  0  0  0
   38.8092   26.0672   41.5591 H   0  0  0  0  0  0  0  0  0  0  0  0
   40.1574   25.1523   40.8425 H   0  0  0  0  0  0  0  0  0  0  0  0
   37.4340   23.8990   42.3230 C   0  0  0  0  0  0  0  0  0  0  0  0
   37.3164   23.0211   42.9582 H   0  0  0  0  0  0  0  0  0  0  0  0
   37.1187   24.7878   42.8695 H   0  0  0  0  0  0  0  0  0  0  0  0
   36.5640   23.7390   41.0750 C   0  0  0  0  0  0  0  0  0  0  0  0
   35.5137   23.7244   41.3661 H   0  0  0  0  0  0  0  0  0  0  0  0
   36.8159   22.8030   40.5764 H   0  0  0  0  0  0  0  0  0  0  0  0
   30.8350   30.5460   33.6160 C   0  0  0  0  0  0  0  0  0  0  0  0
   29.8290   30.2165   33.8301 H   0  0  0  0  0  0  0  0  0  0  0  0
   38.8150   24.0350   41.9540 O   0  0  0  0  0  0  0  0  0  0  0  0
   35.2410   30.3490   37.3210 C   0  0  0  0  0  0  0  0  0  0  0  0
   31.7830   30.6110   34.6350 C   0  0  0  0  0  0  0  0  0  0  0  0
   35.6140   25.6240   38.0940 C   0  0  0  0  0  0  0  0  0  0  0  0
   36.8090   24.9080   40.1150 C   0  0  0  0  0  0  0  0  0  0  0  0
   36.4892   25.8475   40.5656 H   0  0  0  0  0  0  0  0  0  0  0  0
   34.7100   27.6810   36.5310 C   0  0  0  0  0  0  0  0  0  0  0  0
   34.2440   28.7240   35.7240 C   0  0  0  0  0  0  0  0  0  0  0  0
   33.6969   28.4999   34.8202 H   0  0  0  0  0  0  0  0  0  0  0  0
   31.1930   30.9090   32.3180 C   0  0  0  0  0  0  0  0  0  0  0  0
   32.4860   31.3350   32.0370 C   0  0  0  0  0  0  0  0  0  0  0  0
   32.7594   31.6084   31.0286 H   0  0  0  0  0  0  0  0  0  0  0  0
   33.4280   31.4080   33.0610 C   0  0  0  0  0  0  0  0  0  0  0  0
   34.4299   31.7510   32.8488 H   0  0  0  0  0  0  0  0  0  0  0  0
   35.4200   27.9480   37.7070 C   0  0  0  0  0  0  0  0  0  0  0  0
   34.4800   26.3490   36.1740 C   0  0  0  0  0  0  0  0  0  0  0  0
   33.9374   26.1220   35.2682 H   0  0  0  0  0  0  0  0  0  0  0  0
   34.4820   30.0550   36.0800 C   0  0  0  0  0  0  0  0  0  0  0  0
   33.0800   31.0400   34.3550 C   0  0  0  0  0  0  0  0  0  0  0  0
   31.4320   30.2560   35.8800 F   0  0  0  0  0  0  0  0  0  0  0  0
   30.2920   30.8400   31.3240 F   0  0  0  0  0  0  0  0  0  0  0  0
   34.0420   31.1260   35.3340 O   0  0  0  0  0  0  0  0  0  0  0  0
   34.9300   25.3500   36.9510 N   0  0  0  0  0  0  0  0  0  0  0  0
   35.4550   31.5390   37.6440 O   0  0  0  0  0  0  0  0  0  0  0  0
   35.6970   29.2750   38.1180 N   0  0  0  0  0  0  0  0  0  0  0  0
   36.4305   29.5251   39.3269 C   0  0  0  0  0  0  0  0  0  0  0  0
   36.6919   28.5766   39.7961 H   0  0  0  0  0  0  0  0  0  0  0  0
   35.8159   30.1112   40.0102 H   0  0  0  0  0  0  0  0  0  0  0  0
   37.6894   30.2891   39.0021 C   0  0  0  0  0  0  0  0  0  0  0  0
   37.4280   31.2376   38.5329 H   0  0  0  0  0  0  0  0  0  0  0  0
   38.3041   29.7030   38.3189 H   0  0  0  0  0  0  0  0  0  0  0  0
   35.8510   26.9090   38.4580 N   0  0  0  0  0  0  0  0  0  0  0  0
   36.0750   24.6170   38.8850 N   0  0  0  0  0  0  0  0  0  0  0  0
   35.9079   23.6571   38.6189 H   0  0  0  0  0  0  0  0  0  0  0  0
   38.5577   30.5851   40.4333 C   0  0  0  0  0  0  0  0  0  0  0  0
   37.9427   31.2321   41.0640 H   0  0  0  0  0  0  0  0  0  0  0  0
   38.8989   29.6203   40.8172 H   0  0  0  0  0  0  0  0  0  0  0  0
   39.9351   31.4718   39.9790 S   0  0  0  0  0  0  0  0  0  0  0  0
   40.8651   31.7382   41.4636 C   0  0  0  0  0  0  0  0  0  0  0  0
   41.2197   30.7813   41.8467 H   0  0  0  0  0  0  0  0  0  0  0  0
   40.2297   32.2153   42.2097 H   0  0  0  0  0  0  0  0  0  0  0  0
   41.7179   32.3817   41.2476 H   0  0  0  0  0  0  0  0  0  0  0  0
   40.7323   30.6266   39.1091 O   0  0  0  0  0  0  0  0  0  0  0  0
   39.4847   32.7681   39.5064 O   0  0  0  0  0  0  0  0  0  0  0  0
  1  2  1  0  0  0  0
  1  3  1  0  0  0  0
  1  4  1  0  0  0  0
  1 19  1  0  0  0  0
  4  5  1  0  0  0  0
  4  6  1  0  0  0  0
  4 15  1  0  0  0  0
  7  8  1  0  0  0  0
  7  9  1  0  0  0  0
  7 10  1  0  0  0  0
  7 15  1  0  0  0  0
 10 11  1  0  0  0  0
 10 12  1  0  0  0  0
 10 19  1  0  0  0  0
 13 14  1  0  0  0  0
 13 17  1  0  0  0  0
 13 24  2  0  0  0  0
 16 32  1  0  0  0  0
 16 38  2  0  0  0  0
 16 39  1  0  0  0  0
 17 33  2  0  0  0  0
 17 34  1  0  0  0  0
 18 37  2  0  0  0  0
 18 46  1  0  0  0  0
 18 47  1  0  0  0  0
 19 20  1  0  0  0  0
 19 47  1  0  0  0  0
 21 22  1  0  0  0  0
 21 29  1  0  0  0  0
 21 30  2  0  0  0  0
 22 23  1  0  0  0  0
 22 32  2  0  0  0  0
 24 25  1  0  0  0  0
 24 35  1  0  0  0  0
 25 26  1  0  0  0  0
 25 27  2  0  0  0  0
 27 28  1  0  0  0  0
 27 33  1  0  0  0  0
 29 39  1  0  0  0  0
 29 46  2  0  0  0  0
 30 31  1  0  0  0  0
 30 37  1  0  0  0  0
 32 36  1  0  0  0  0
 33 36  1  0  0  0  0
 39 40  1  0  0  0  0
 40 41  1  0  0  0  0
 40 42  1  0  0  0  0
 40 43  1  0  0  0  0
 43 44  1  0  0  0  0
 43 45  1  0  0  0  0
 43 49  1  0  0  0  0
 47 48  1  0  0  0  0
 49 50  1  0  0  0  0
 49 51  1  0  0  0  0
 49 52  1  0  0  0  0
 52 53  1  0  0  0  0
 52 57  2  0  0  0  0
 52 58  2  0  0  0  0
 53 54  1  0  0  0  0
 53 55  1  0  0  0  0
 53 56  1  0  0  0  0
M  END
$$$$
p38_goldstein_17_2q.C
  MOE2024           3D
p38_goldstein_17_2q
 59 63  0  0  0  0  0  0  0  0999 V2000
   38.2569   25.0438   39.8776 C   0  0  0  0  0  0  0  0  0  0  0  0
   38.5936   24.1834   39.2843 H   0  0  0  0  0  0  0  0  0  0  0  0
   38.4606   25.9428   39.2850 H   0  0  0  0  0  0  0  0  0  0  0  0
   39.0443   25.0891   41.1785 C   0  0  0  0  0  0  0  0  0  0  0  0
   38.8146   25.9939   41.7537 H   0  0  0  0  0  0  0  0  0  0  0  0
   40.1177   25.0978   40.9642 H   0  0  0  0  0  0  0  0  0  0  0  0
   37.3954   23.8547   42.3485 C   0  0  0  0  0  0  0  0  0  0  0  0
   37.2754   22.9718   42.9843 H   0  0  0  0  0  0  0  0  0  0  0  0
   37.1250   24.7329   42.9466 H   0  0  0  0  0  0  0  0  0  0  0  0
   36.5152   23.7278   41.1146 C   0  0  0  0  0  0  0  0  0  0  0  0
   35.4592   23.6788   41.4040 H   0  0  0  0  0  0  0  0  0  0  0  0
   36.7537   22.7874   40.6002 H   0  0  0  0  0  0  0  0  0  0  0  0
   30.7814   30.6877   33.8002 C   0  0  0  0  0  0  0  0  0  0  0  0
   29.7908   30.4990   34.1979 H   0  0  0  0  0  0  0  0  0  0  0  0
   38.7689   23.9366   41.9731 O   0  0  0  0  0  0  0  0  0  0  0  0
   35.3188   30.3537   37.0428 C   0  0  0  0  0  0  0  0  0  0  0  0
   31.8884   30.7131   34.6412 C   0  0  0  0  0  0  0  0  0  0  0  0
   35.6238   25.7023   38.1104 C   0  0  0  0  0  0  0  0  0  0  0  0
   36.7597   24.9048   40.1651 C   0  0  0  0  0  0  0  0  0  0  0  0
   36.3987   25.8126   40.6675 H   0  0  0  0  0  0  0  0  0  0  0  0
   34.8134   27.6531   36.4047 C   0  0  0  0  0  0  0  0  0  0  0  0
   34.3938   28.6872   35.4777 C   0  0  0  0  0  0  0  0  0  0  0  0
   33.9262   28.3832   34.5472 H   0  0  0  0  0  0  0  0  0  0  0  0
   30.9633   30.9174   32.4417 C   0  0  0  0  0  0  0  0  0  0  0  0
   32.2282   31.1751   31.9176 C   0  0  0  0  0  0  0  0  0  0  0  0
   32.3438   31.3575   30.8538 H   0  0  0  0  0  0  0  0  0  0  0  0
   33.3349   31.2049   32.7670 C   0  0  0  0  0  0  0  0  0  0  0  0
   34.3229   31.4198   32.3684 H   0  0  0  0  0  0  0  0  0  0  0  0
   35.4645   27.9537   37.5867 C   0  0  0  0  0  0  0  0  0  0  0  0
   34.6002   26.3127   36.1597 C   0  0  0  0  0  0  0  0  0  0  0  0
   34.0957   25.9682   35.2606 H   0  0  0  0  0  0  0  0  0  0  0  0
   34.6028   29.9795   35.7723 C   0  0  0  0  0  0  0  0  0  0  0  0
   33.1666   30.9542   34.1302 C   0  0  0  0  0  0  0  0  0  0  0  0
   31.7092   30.5068   35.9539 F   0  0  0  0  0  0  0  0  0  0  0  0
   29.9033   30.8981   31.6225 F   0  0  0  0  0  0  0  0  0  0  0  0
   34.2813   31.0386   34.9280 O   0  0  0  0  0  0  0  0  0  0  0  0
   34.9906   25.3278   36.9890 N   0  0  0  0  0  0  0  0  0  0  0  0
   35.5236   31.5471   37.2677 O   0  0  0  0  0  0  0  0  0  0  0  0
   35.7167   29.3275   37.9045 N   0  0  0  0  0  0  0  0  0  0  0  0
   35.8698   26.9858   38.4359 N   0  0  0  0  0  0  0  0  0  0  0  0
   36.0316   24.6848   38.9345 N   0  0  0  0  0  0  0  0  0  0  0  0
   35.8027   23.7565   38.6100 H   0  0  0  0  0  0  0  0  0  0  0  0
   37.7355   31.4854   41.4254 S   0  0  0  0  0  0  0  0  0  0  0  0
   36.1563   30.6632   41.5073 C   0  0  0  0  0  0  0  0  0  0  0  0
   35.5104   31.2712   42.1481 H   0  0  0  0  0  0  0  0  0  0  0  0
   36.3168   29.6973   41.9973 H   0  0  0  0  0  0  0  0  0  0  0  0
   35.5289   30.4768   40.1310 C   0  0  0  0  0  0  0  0  0  0  0  0
   35.3173   31.4627   39.7035 H   0  0  0  0  0  0  0  0  0  0  0  0
   34.5605   29.9756   40.2506 H   0  0  0  0  0  0  0  0  0  0  0  0
   36.4167   29.6461   39.1783 C   0  0  0  0  0  0  0  0  0  0  0  0
   36.6337   28.7099   39.7049 H   0  0  0  0  0  0  0  0  0  0  0  0
   37.7812   30.3260   38.9314 C   0  0  0  0  0  0  0  0  0  0  0  0
   37.6469   31.3060   38.4613 H   0  0  0  0  0  0  0  0  0  0  0  0
   38.3637   29.7203   38.2261 H   0  0  0  0  0  0  0  0  0  0  0  0
   38.5916   30.5019   40.2101 C   0  0  0  0  0  0  0  0  0  0  0  0
   39.5410   31.0044   40.0007 H   0  0  0  0  0  0  0  0  0  0  0  0
   38.8092   29.5324   40.6702 H   0  0  0  0  0  0  0  0  0  0  0  0
   37.5355   32.8169   40.8875 O   0  0  0  0  0  0  0  0  0  0  0  0
   38.4019   31.2913   42.6993 O   0  0  0  0  0  0  0  0  0  0  0  0
  1  2  1  0  0  0  0
  1  3  1  0  0  0  0
  1  4  1  0  0  0  0
  1 19  1  0  0  0  0
  4  5  1  0  0  0  0
  4  6  1  0  0  0  0
  4 15  1  0  0  0  0
  7  8  1  0  0  0  0
  7  9  1  0  0  0  0
  7 10  1  0  0  0  0
  7 15  1  0  0  0  0
 10 11  1  0  0  0  0
 10 12  1  0  0  0  0
 10 19  1  0  0  0  0
 13 14  1  0  0  0  0
 13 17  1  0  0  0  0
 13 24  2  0  0  0  0
 16 32  1  0  0  0  0
 16 38  2  0  0  0  0
 16 39  1  0  0  0  0
 17 33  2  0  0  0  0
 17 34  1  0  0  0  0
 18 37  2  0  0  0  0
 18 40  1  0  0  0  0
 18 41  1  0  0  0  0
 19 20  1  0  0  0  0
 19 41  1  0  0  0  0
 21 22  1  0  0  0  0
 21 29  1  0  0  0  0
 21 30  2  0  0  0  0
 22 23  1  0  0  0  0
 22 32  2  0  0  0  0
 24 25  1  0  0  0  0
 24 35  1  0  0  0  0
 25 26  1  0  0  0  0
 25 27  2  0  0  0  0
 27 28  1  0  0  0  0
 27 33  1  0  0  0  0
 29 39  1  0  0  0  0
 29 40  2  0  0  0  0
 30 31  1  0  0  0  0
 30 37  1  0  0  0  0
 32 36  1  0  0  0  0
 33 36  1  0  0  0  0
 39 50  1  0  0  0  0
 41 42  1  0  0  0  0
 43 44  1  0  0  0  0
 43 55  1  0  0  0  0
 43 58  2  0  0  0  0
 43 59  2  0  0  0  0
 44 45  1  0  0  0  0
 44 46  1  0  0  0  0
 44 47  1  0  0  0  0
 47 48  1  0  0  0  0
 47 49  1  0  0  0  0
 47 50  1  0  0  0  0
 50 51  1  0  0  0  0
 50 52  1  0  0  0  0
 52 53  1  0  0  0  0
 52 54  1  0  0  0  0
 52 55  1  0  0  0  0
 55 56  1  0  0  0  0
 55 57  1  0  0  0  0
M  END
$$$$
p38_goldstein_18_2r.C
  MOE2024           3D
p38_goldstein_18_2r
 56 59  0  0  0  0  0  0  0  0999 V2000
   38.2970   24.9800   39.7730 C   0  0  0  0  0  0  0  0  0  0  0  0
   38.6009   24.0658   39.2631 H   0  0  0  0  0  0  0  0  0  0  0  0
   38.4835   25.8365   39.1251 H   0  0  0  0  0  0  0  0  0  0  0  0
   39.0920   25.1340   41.0720 C   0  0  0  0  0  0  0  0  0  0  0  0
   38.8092   26.0672   41.5591 H   0  0  0  0  0  0  0  0  0  0  0  0
   40.1574   25.1523   40.8425 H   0  0  0  0  0  0  0  0  0  0  0  0
   37.4340   23.8990   42.3230 C   0  0  0  0  0  0  0  0  0  0  0  0
   37.3164   23.0211   42.9582 H   0  0  0  0  0  0  0  0  0  0  0  0
   37.1187   24.7878   42.8695 H   0  0  0  0  0  0  0  0  0  0  0  0
   36.5640   23.7390   41.0750 C   0  0  0  0  0  0  0  0  0  0  0  0
   35.5137   23.7244   41.3661 H   0  0  0  0  0  0  0  0  0  0  0  0
   36.8159   22.8030   40.5764 H   0  0  0  0  0  0  0  0  0  0  0  0
   30.8350   30.5460   33.6160 C   0  0  0  0  0  0  0  0  0  0  0  0
   29.8290   30.2165   33.8301 H   0  0  0  0  0  0  0  0  0  0  0  0
   38.8150   24.0350   41.9540 O   0  0  0  0  0  0  0  0  0  0  0  0
   35.2410   30.3490   37.3210 C   0  0  0  0  0  0  0  0  0  0  0  0
   31.7830   30.6110   34.6350 C   0  0  0  0  0  0  0  0  0  0  0  0
   35.6140   25.6240   38.0940 C   0  0  0  0  0  0  0  0  0  0  0  0
   36.8090   24.9080   40.1150 C   0  0  0  0  0  0  0  0  0  0  0  0
   36.4892   25.8475   40.5656 H   0  0  0  0  0  0  0  0  0  0  0  0
   34.7100   27.6810   36.5310 C   0  0  0  0  0  0  0  0  0  0  0  0
   34.2440   28.7240   35.7240 C   0  0  0  0  0  0  0  0  0  0  0  0
   33.6969   28.4999   34.8202 H   0  0  0  0  0  0  0  0  0  0  0  0
   31.1930   30.9090   32.3180 C   0  0  0  0  0  0  0  0  0  0  0  0
   32.4860   31.3350   32.0370 C   0  0  0  0  0  0  0  0  0  0  0  0
   32.7594   31.6084   31.0286 H   0  0  0  0  0  0  0  0  0  0  0  0
   33.4280   31.4080   33.0610 C   0  0  0  0  0  0  0  0  0  0  0  0
   34.4299   31.7510   32.8488 H   0  0  0  0  0  0  0  0  0  0  0  0
   35.4200   27.9480   37.7070 C   0  0  0  0  0  0  0  0  0  0  0  0
   34.4800   26.3490   36.1740 C   0  0  0  0  0  0  0  0  0  0  0  0
   33.9374   26.1220   35.2682 H   0  0  0  0  0  0  0  0  0  0  0  0
   34.4820   30.0550   36.0800 C   0  0  0  0  0  0  0  0  0  0  0  0
   33.0800   31.0400   34.3550 C   0  0  0  0  0  0  0  0  0  0  0  0
   31.4320   30.2560   35.8800 F   0  0  0  0  0  0  0  0  0  0  0  0
   30.2920   30.8400   31.3240 F   0  0  0  0  0  0  0  0  0  0  0  0
   34.0420   31.1260   35.3340 O   0  0  0  0  0  0  0  0  0  0  0  0
   34.9300   25.3500   36.9510 N   0  0  0  0  0  0  0  0  0  0  0  0
   35.4550   31.5390   37.6440 O   0  0  0  0  0  0  0  0  0  0  0  0
   35.6970   29.2750   38.1180 N   0  0  0  0  0  0  0  0  0  0  0  0
   36.4305   29.5251   39.3269 C   0  0  0  0  0  0  0  0  0  0  0  0
   36.6919   28.5766   39.7961 H   0  0  0  0  0  0  0  0  0  0  0  0
   35.8159   30.1112   40.0102 H   0  0  0  0  0  0  0  0  0  0  0  0
   37.6894   30.2891   39.0020 C   0  0  0  0  0  0  0  0  0  0  0  0
   38.4597   30.5518   40.2715 C   0  0  0  0  0  0  0  0  0  0  0  0
   39.3697   31.1040   40.0367 H   0  0  0  0  0  0  0  0  0  0  0  0
   38.7212   29.6033   40.7407 H   0  0  0  0  0  0  0  0  0  0  0  0
   37.8451   31.1379   40.9548 H   0  0  0  0  0  0  0  0  0  0  0  0
   37.3277   31.6013   38.3529 C   0  0  0  0  0  0  0  0  0  0  0  0
   38.2376   32.1535   38.1181 H   0  0  0  0  0  0  0  0  0  0  0  0
   36.7131   32.1874   39.0361 H   0  0  0  0  0  0  0  0  0  0  0  0
   36.7709   31.4114   37.4353 H   0  0  0  0  0  0  0  0  0  0  0  0
   38.4889   29.5266   38.1131 O   0  0  0  0  0  0  0  0  0  0  0  0
   39.2804   30.0362   37.9249 H   0  0  0  0  0  0  0  0  0  0  0  0
   35.8510   26.9090   38.4580 N   0  0  0  0  0  0  0  0  0  0  0  0
   36.0750   24.6170   38.8850 N   0  0  0  0  0  0  0  0  0  0  0  0
   35.9079   23.6571   38.6189 H   0  0  0  0  0  0  0  0  0  0  0  0
  1  2  1  0  0  0  0
  1  3  1  0  0  0  0
  1  4  1  0  0  0  0
  1 19  1  0  0  0  0
  4  5  1  0  0  0  0
  4  6  1  0  0  0  0
  4 15  1  0  0  0  0
  7  8  1  0  0  0  0
  7  9  1  0  0  0  0
  7 10  1  0  0  0  0
  7 15  1  0  0  0  0
 10 11  1  0  0  0  0
 10 12  1  0  0  0  0
 10 19  1  0  0  0  0
 13 14  1  0  0  0  0
 13 17  1  0  0  0  0
 13 24  2  0  0  0  0
 16 32  1  0  0  0  0
 16 38  2  0  0  0  0
 16 39  1  0  0  0  0
 17 33  2  0  0  0  0
 17 34  1  0  0  0  0
 18 37  2  0  0  0  0
 18 54  1  0  0  0  0
 18 55  1  0  0  0  0
 19 20  1  0  0  0  0
 19 55  1  0  0  0  0
 21 22  1  0  0  0  0
 21 29  1  0  0  0  0
 21 30  2  0  0  0  0
 22 23  1  0  0  0  0
 22 32  2  0  0  0  0
 24 25  1  0  0  0  0
 24 35  1  0  0  0  0
 25 26  1  0  0  0  0
 25 27  2  0  0  0  0
 27 28  1  0  0  0  0
 27 33  1  0  0  0  0
 29 39  1  0  0  0  0
 29 54  2  0  0  0  0
 30 31  1  0  0  0  0
 30 37  1  0  0  0  0
 32 36  1  0  0  0  0
 33 36  1  0  0  0  0
 39 40  1  0  0  0  0
 40 41  1  0  0  0  0
 40 42  1  0  0  0  0
 40 43  1  0  0  0  0
 43 44  1  0  0  0  0
 43 48  1  0  0  0  0
 43 52  1  0  0  0  0
 44 45  1  0  0  0  0
 44 46  1  0  0  0  0
 44 47  1  0  0  0  0
 48 49  1  0  0  0  0
 48 50  1  0  0  0  0
 48 51  1  0  0  0  0
 52 53  1  0  0  0  0
 55 56  1  0  0  0  0
M  END
$$$$
p38_goldstein_19_2s_s.C
  MOE2024           3D
p38_goldstein_19_2s_s
 54 57  0  0  1  0  0  0  0  0999 V2000
   38.5852   25.0304   39.7222 C   0  0  0  0  0  0  0  0  0  0  0  0
   38.8637   24.0736   39.2609 H   0  0  0  0  0  0  0  0  0  0  0  0
   38.9388   25.8219   39.0534 H   0  0  0  0  0  0  0  0  0  0  0  0
   39.2585   25.1456   41.0806 C   0  0  0  0  0  0  0  0  0  0  0  0
   39.0724   26.1232   41.5402 H   0  0  0  0  0  0  0  0  0  0  0  0
   40.3417   25.0317   40.9711 H   0  0  0  0  0  0  0  0  0  0  0  0
   37.3949   24.1839   42.1959 C   0  0  0  0  0  0  0  0  0  0  0  0
   37.1346   23.3756   42.8867 H   0  0  0  0  0  0  0  0  0  0  0  0
   37.1584   25.1325   42.6922 H   0  0  0  0  0  0  0  0  0  0  0  0
   36.6163   24.0269   40.8976 C   0  0  0  0  0  0  0  0  0  0  0  0
   35.5396   24.1052   41.0874 H   0  0  0  0  0  0  0  0  0  0  0  0
   36.8012   23.0267   40.4840 H   0  0  0  0  0  0  0  0  0  0  0  0
   30.5826   30.5147   33.7213 C   0  0  0  0  0  0  0  0  0  0  0  0
   29.6121   30.2145   34.1001 H   0  0  0  0  0  0  0  0  0  0  0  0
   38.7990   24.1134   41.9524 O   0  0  0  0  0  0  0  0  0  0  0  0
   35.0993   30.4815   36.9891 C   0  0  0  0  0  0  0  0  0  0  0  0
   31.6752   30.6214   34.5749 C   0  0  0  0  0  0  0  0  0  0  0  0
   35.9370   25.8610   37.8194 C   0  0  0  0  0  0  0  0  0  0  0  0
   37.0668   25.0887   39.8919 C   0  0  0  0  0  0  0  0  0  0  0  0
   36.7857   26.0658   40.3064 H   0  0  0  0  0  0  0  0  0  0  0  0
   34.9171   27.7825   36.1819 C   0  0  0  0  0  0  0  0  0  0  0  0
   34.3931   28.8193   35.3103 C   0  0  0  0  0  0  0  0  0  0  0  0
   33.9768   28.5201   34.3544 H   0  0  0  0  0  0  0  0  0  0  0  0
   30.7514   30.8088   32.3732 C   0  0  0  0  0  0  0  0  0  0  0  0
   31.9884   31.2095   31.8723 C   0  0  0  0  0  0  0  0  0  0  0  0
   32.0934   31.4384   30.8163 H   0  0  0  0  0  0  0  0  0  0  0  0
   33.0798   31.3214   32.7342 C   0  0  0  0  0  0  0  0  0  0  0  0
   34.0451   31.6453   32.3541 H   0  0  0  0  0  0  0  0  0  0  0  0
   35.4983   28.0883   37.3953 C   0  0  0  0  0  0  0  0  0  0  0  0
   34.8874   26.4433   35.8658 C   0  0  0  0  0  0  0  0  0  0  0  0
   34.4563   26.0845   34.9359 H   0  0  0  0  0  0  0  0  0  0  0  0
   34.4495   30.1088   35.6836 C   0  0  0  0  0  0  0  0  0  0  0  0
   32.9260   31.0088   34.0862 C   0  0  0  0  0  0  0  0  0  0  0  0
   31.5085   30.3503   35.8774 F   0  0  0  0  0  0  0  0  0  0  0  0
   29.7055   30.7120   31.5415 F   0  0  0  0  0  0  0  0  0  0  0  0
   34.0193   31.1743   34.9004 O   0  0  0  0  0  0  0  0  0  0  0  0
   35.3779   25.4755   36.6642 N   0  0  0  0  0  0  0  0  0  0  0  0
   35.2027   31.6698   37.2952 O   0  0  0  0  0  0  0  0  0  0  0  0
   35.5601   29.4488   37.7998 N   0  0  0  0  0  0  0  0  0  0  0  0
   36.1366   29.7729   39.1134 C   0  0  0  0  0  0  0  0  0  0  0  0
   35.7351   29.0726   39.8564 H   0  0  0  0  0  0  0  0  0  0  0  0
   35.7913   30.7718   39.4039 H   0  0  0  0  0  0  0  0  0  0  0  0
   37.6709   29.7511   39.0948 C   0  0  3  0  0  0  0  0  0  0  0  0
   38.2604   30.5446   40.2593 C   0  0  0  0  0  0  0  0  0  0  0  0
   39.6788   30.3833   40.2438 O   0  0  0  0  0  0  0  0  0  0  0  0
   39.8099   29.4396   40.0142 H   0  0  0  0  0  0  0  0  0  0  0  0
   37.9007   30.1636   41.2207 H   0  0  0  0  0  0  0  0  0  0  0  0
   38.0261   31.6105   40.1861 H   0  0  0  0  0  0  0  0  0  0  0  0
   38.0648   30.1379   38.1480 H   0  0  0  0  0  0  0  0  0  0  0  0
   38.1740   28.4112   39.2360 O   0  0  0  0  0  0  0  0  0  0  0  0
   37.5213   27.8192   38.7964 H   0  0  0  0  0  0  0  0  0  0  0  0
   36.0388   27.1480   38.2032 N   0  0  0  0  0  0  0  0  0  0  0  0
   36.4208   24.8595   38.6188 N   0  0  0  0  0  0  0  0  0  0  0  0
   36.3070   23.9267   38.2476 H   0  0  0  0  0  0  0  0  0  0  0  0
  1  2  1  0  0  0  0
  1  3  1  0  0  0  0
  1  4  1  0  0  0  0
  1 19  1  0  0  0  0
  4  5  1  0  0  0  0
  4  6  1  0  0  0  0
  4 15  1  0  0  0  0
  7  8  1  0  0  0  0
  7  9  1  0  0  0  0
  7 10  1  0  0  0  0
  7 15  1  0  0  0  0
 10 11  1  0  0  0  0
 10 12  1  0  0  0  0
 10 19  1  0  0  0  0
 13 14  1  0  0  0  0
 13 17  1  0  0  0  0
 13 24  2  0  0  0  0
 16 32  1  0  0  0  0
 16 38  2  0  0  0  0
 16 39  1  0  0  0  0
 17 33  2  0  0  0  0
 17 34  1  0  0  0  0
 18 37  2  0  0  0  0
 18 52  1  0  0  0  0
 18 53  1  0  0  0  0
 19 20  1  0  0  0  0
 19 53  1  0  0  0  0
 21 22  1  0  0  0  0
 21 29  1  0  0  0  0
 21 30  2  0  0  0  0
 22 23  1  0  0  0  0
 22 32  2  0  0  0  0
 24 25  1  0  0  0  0
 24 35  1  0  0  0  0
 25 26  1  0  0  0  0
 25 27  2  0  0  0  0
 27 28  1  0  0  0  0
 27 33  1  0  0  0  0
 29 39  1  0  0  0  0
 29 52  2  0  0  0  0
 30 31  1  0  0  0  0
 30 37  1  0  0  0  0
 32 36  1  0  0  0  0
 33 36  1  0  0  0  0
 39 40  1  0  0  0  0
 40 41  1  0  0  0  0
 40 42  1  0  0  0  0
 40 43  1  0  0  0  0
 43 44  1  0  0  0  0
 43 49  1  0  0  0  0
 43 50  1  0  0  0  0
 44 45  1  0  0  0  0
 44 47  1  0  0  0  0
 44 48  1  0  0  0  0
 45 46  1  0  0  0  0
 50 51  1  0  0  0  0
 53 54  1  0  0  0  0
M  END
$$$$
p38_goldstein_20_2t.C
  MOE2024           3D
p38_goldstein_20_2t
 47 50  0  0  0  0  0  0  0  0999 V2000
   38.2970   24.9800   39.7730 C   0  0  0  0  0  0  0  0  0  0  0  0
   38.6009   24.0658   39.2631 H   0  0  0  0  0  0  0  0  0  0  0  0
   38.4835   25.8365   39.1251 H   0  0  0  0  0  0  0  0  0  0  0  0
   39.0920   25.1340   41.0720 C   0  0  0  0  0  0  0  0  0  0  0  0
   38.8092   26.0672   41.5591 H   0  0  0  0  0  0  0  0  0  0  0  0
   40.1574   25.1523   40.8425 H   0  0  0  0  0  0  0  0  0  0  0  0
   37.4340   23.8990   42.3230 C   0  0  0  0  0  0  0  0  0  0  0  0
   37.3164   23.0211   42.9582 H   0  0  0  0  0  0  0  0  0  0  0  0
   37.1187   24.7878   42.8695 H   0  0  0  0  0  0  0  0  0  0  0  0
   36.5640   23.7390   41.0750 C   0  0  0  0  0  0  0  0  0  0  0  0
   35.5137   23.7244   41.3661 H   0  0  0  0  0  0  0  0  0  0  0  0
   36.8159   22.8030   40.5764 H   0  0  0  0  0  0  0  0  0  0  0  0
   30.8350   30.5460   33.6160 C   0  0  0  0  0  0  0  0  0  0  0  0
   29.8290   30.2165   33.8301 H   0  0  0  0  0  0  0  0  0  0  0  0
   38.8150   24.0350   41.9540 O   0  0  0  0  0  0  0  0  0  0  0  0
   35.2410   30.3490   37.3210 C   0  0  0  0  0  0  0  0  0  0  0  0
   31.7830   30.6110   34.6350 C   0  0  0  0  0  0  0  0  0  0  0  0
   35.6140   25.6240   38.0940 C   0  0  0  0  0  0  0  0  0  0  0  0
   36.8090   24.9080   40.1150 C   0  0  0  0  0  0  0  0  0  0  0  0
   36.4892   25.8475   40.5656 H   0  0  0  0  0  0  0  0  0  0  0  0
   34.7100   27.6810   36.5310 C   0  0  0  0  0  0  0  0  0  0  0  0
   34.2440   28.7240   35.7240 C   0  0  0  0  0  0  0  0  0  0  0  0
   33.6969   28.4999   34.8202 H   0  0  0  0  0  0  0  0  0  0  0  0
   31.1930   30.9090   32.3180 C   0  0  0  0  0  0  0  0  0  0  0  0
   32.4860   31.3350   32.0370 C   0  0  0  0  0  0  0  0  0  0  0  0
   32.7594   31.6084   31.0286 H   0  0  0  0  0  0  0  0  0  0  0  0
   33.4280   31.4080   33.0610 C   0  0  0  0  0  0  0  0  0  0  0  0
   34.4299   31.7510   32.8488 H   0  0  0  0  0  0  0  0  0  0  0  0
   35.4200   27.9480   37.7070 C   0  0  0  0  0  0  0  0  0  0  0  0
   34.4800   26.3490   36.1740 C   0  0  0  0  0  0  0  0  0  0  0  0
   33.9374   26.1220   35.2682 H   0  0  0  0  0  0  0  0  0  0  0  0
   34.4820   30.0550   36.0800 C   0  0  0  0  0  0  0  0  0  0  0  0
   33.0800   31.0400   34.3550 C   0  0  0  0  0  0  0  0  0  0  0  0
   31.4320   30.2560   35.8800 F   0  0  0  0  0  0  0  0  0  0  0  0
   30.2920   30.8400   31.3240 F   0  0  0  0  0  0  0  0  0  0  0  0
   34.0420   31.1260   35.3340 O   0  0  0  0  0  0  0  0  0  0  0  0
   34.9300   25.3500   36.9510 N   0  0  0  0  0  0  0  0  0  0  0  0
   35.4550   31.5390   37.6440 O   0  0  0  0  0  0  0  0  0  0  0  0
   35.6872   29.2799   38.0806 N   0  0  0  0  0  0  0  0  0  0  0  0
   36.4467   29.5111   39.3074 C   0  0  0  0  0  0  0  0  0  0  0  0
   37.2949   28.8172   39.3458 H   0  0  0  0  0  0  0  0  0  0  0  0
   36.8813   30.5169   39.2823 H   0  0  0  0  0  0  0  0  0  0  0  0
   35.8510   26.9090   38.4580 N   0  0  0  0  0  0  0  0  0  0  0  0
   36.0750   24.6170   38.8850 N   0  0  0  0  0  0  0  0  0  0  0  0
   35.9079   23.6571   38.6189 H   0  0  0  0  0  0  0  0  0  0  0  0
   35.6112   29.3858   40.5127 C   0  0  0  0  0  0  0  0  0  0  0  0
   34.9645   29.2859   41.4720 N   0  0  0  0  0  0  0  0  0  0  0  0
  1  2  1  0  0  0  0
  1  3  1  0  0  0  0
  1  4  1  0  0  0  0
  1 19  1  0  0  0  0
  4  5  1  0  0  0  0
  4  6  1  0  0  0  0
  4 15  1  0  0  0  0
  7  8  1  0  0  0  0
  7  9  1  0  0  0  0
  7 10  1  0  0  0  0
  7 15  1  0  0  0  0
 10 11  1  0  0  0  0
 10 12  1  0  0  0  0
 10 19  1  0  0  0  0
 13 14  1  0  0  0  0
 13 17  1  0  0  0  0
 13 24  2  0  0  0  0
 16 32  1  0  0  0  0
 16 38  2  0  0  0  0
 16 39  1  0  0  0  0
 17 33  2  0  0  0  0
 17 34  1  0  0  0  0
 18 37  2  0  0  0  0
 18 43  1  0  0  0  0
 18 44  1  0  0  0  0
 19 20  1  0  0  0  0
 19 44  1  0  0  0  0
 21 22  1  0  0  0  0
 21 29  1  0  0  0  0
 21 30  2  0  0  0  0
 22 23  1  0  0  0  0
 22 32  2  0  0  0  0
 24 25  1  0  0  0  0
 24 35  1  0  0  0  0
 25 26  1  0  0  0  0
 25 27  2  0  0  0  0
 27 28  1  0  0  0  0
 27 33  1  0  0  0  0
 29 39  1  0  0  0  0
 29 43  2  0  0  0  0
 30 31  1  0  0  0  0
 30 37  1  0  0  0  0
 32 36  1  0  0  0  0
 33 36  1  0  0  0  0
 39 40  1  0  0  0  0
 40 41  1  0  0  0  0
 40 42  1  0  0  0  0
 40 46  1  0  0  0  0
 44 45  1  0  0  0  0
 46 47  3  0  0  0  0
M  END
$$$$
p38_goldstein_21_2u.C
  MOE2024           3D
p38_goldstein_21_2u
 64 68  0  0  0  0  0  0  0  0999 V2000
   38.2746   25.4788   40.0469 C   0  0  0  0  0  0  0  0  0  0  0  0
   38.7709   24.6516   39.5226 H   0  0  0  0  0  0  0  0  0  0  0  0
   38.3902   26.3715   39.4226 H   0  0  0  0  0  0  0  0  0  0  0  0
   38.9528   25.6993   41.3908 C   0  0  0  0  0  0  0  0  0  0  0  0
   38.5471   26.5793   41.9038 H   0  0  0  0  0  0  0  0  0  0  0  0
   40.0243   25.8679   41.2436 H   0  0  0  0  0  0  0  0  0  0  0  0
   37.4384   24.2577   42.5128 C   0  0  0  0  0  0  0  0  0  0  0  0
   37.4168   23.3839   43.1716 H   0  0  0  0  0  0  0  0  0  0  0  0
   36.9938   25.0967   43.0609 H   0  0  0  0  0  0  0  0  0  0  0  0
   36.6703   23.9625   41.2329 C   0  0  0  0  0  0  0  0  0  0  0  0
   35.6169   23.7620   41.4603 H   0  0  0  0  0  0  0  0  0  0  0  0
   37.0798   23.0542   40.7714 H   0  0  0  0  0  0  0  0  0  0  0  0
   30.6570   30.5061   33.9823 C   0  0  0  0  0  0  0  0  0  0  0  0
   29.7333   30.3336   34.5228 H   0  0  0  0  0  0  0  0  0  0  0  0
   38.8042   24.5518   42.2239 O   0  0  0  0  0  0  0  0  0  0  0  0
   35.3337   30.2683   36.7318 C   0  0  0  0  0  0  0  0  0  0  0  0
   31.8768   30.5159   34.6508 C   0  0  0  0  0  0  0  0  0  0  0  0
   35.7504   25.7099   38.0843 C   0  0  0  0  0  0  0  0  0  0  0  0
   36.7973   25.1338   40.2527 C   0  0  0  0  0  0  0  0  0  0  0  0
   36.2794   25.9941   40.6987 H   0  0  0  0  0  0  0  0  0  0  0  0
   34.9169   27.5188   36.2267 C   0  0  0  0  0  0  0  0  0  0  0  0
   34.4843   28.4905   35.2397 C   0  0  0  0  0  0  0  0  0  0  0  0
   34.0378   28.1319   34.3181 H   0  0  0  0  0  0  0  0  0  0  0  0
   30.6392   30.7294   32.6107 C   0  0  0  0  0  0  0  0  0  0  0  0
   31.8161   30.9668   31.9044 C   0  0  0  0  0  0  0  0  0  0  0  0
   31.7755   31.1461   30.8344 H   0  0  0  0  0  0  0  0  0  0  0  0
   33.0369   30.9791   32.5806 C   0  0  0  0  0  0  0  0  0  0  0  0
   33.9582   31.1781   32.0387 H   0  0  0  0  0  0  0  0  0  0  0  0
   35.5219   27.9077   37.4036 C   0  0  0  0  0  0  0  0  0  0  0  0
   34.7683   26.1593   36.0634 C   0  0  0  0  0  0  0  0  0  0  0  0
   34.3073   25.7384   35.1751 H   0  0  0  0  0  0  0  0  0  0  0  0
   34.6484   29.8019   35.4758 C   0  0  0  0  0  0  0  0  0  0  0  0
   33.0702   30.7335   33.9555 C   0  0  0  0  0  0  0  0  0  0  0  0
   31.8848   30.3213   35.9776 F   0  0  0  0  0  0  0  0  0  0  0  0
   29.4696   30.7246   31.9574 F   0  0  0  0  0  0  0  0  0  0  0  0
   34.2993   30.7950   34.5676 O   0  0  0  0  0  0  0  0  0  0  0  0
   35.1758   25.2462   36.9677 N   0  0  0  0  0  0  0  0  0  0  0  0
   35.5061   31.4762   36.8949 O   0  0  0  0  0  0  0  0  0  0  0  0
   35.7368   29.2969   37.6471 N   0  0  0  0  0  0  0  0  0  0  0  0
   35.9293   27.0138   38.3274 N   0  0  0  0  0  0  0  0  0  0  0  0
   36.1729   24.7752   38.9956 N   0  0  0  0  0  0  0  0  0  0  0  0
   36.0258   23.8129   38.7250 H   0  0  0  0  0  0  0  0  0  0  0  0
   37.5888   31.3211   40.9385 N   0  0  0  0  0  0  0  0  0  0  0  0
   37.7747   33.0002   41.0540 S   0  0  0  0  0  0  0  0  0  0  0  0
   39.2151   33.0900   42.0937 C   0  0  0  0  0  0  0  0  0  0  0  0
   39.0045   32.5807   43.0361 H   0  0  0  0  0  0  0  0  0  0  0  0
   39.4268   34.1446   42.2839 H   0  0  0  0  0  0  0  0  0  0  0  0
   40.0632   32.6330   41.5819 H   0  0  0  0  0  0  0  0  0  0  0  0
   36.2520   30.7245   41.1600 C   0  0  0  0  0  0  0  0  0  0  0  0
   35.6450   31.3348   41.8347 H   0  0  0  0  0  0  0  0  0  0  0  0
   36.3860   29.7618   41.6689 H   0  0  0  0  0  0  0  0  0  0  0  0
   35.5361   30.5301   39.8302 C   0  0  0  0  0  0  0  0  0  0  0  0
   35.3252   31.5069   39.3813 H   0  0  0  0  0  0  0  0  0  0  0  0
   34.5708   30.0387   39.9993 H   0  0  0  0  0  0  0  0  0  0  0  0
   36.4117   29.6712   38.9075 C   0  0  0  0  0  0  0  0  0  0  0  0
   36.6222   28.7595   39.4776 H   0  0  0  0  0  0  0  0  0  0  0  0
   37.7788   30.3321   38.6823 C   0  0  0  0  0  0  0  0  0  0  0  0
   37.6691   31.2870   38.1573 H   0  0  0  0  0  0  0  0  0  0  0  0
   38.4069   29.6933   38.0503 H   0  0  0  0  0  0  0  0  0  0  0  0
   38.4704   30.5610   40.0223 C   0  0  0  0  0  0  0  0  0  0  0  0
   39.4209   31.0825   39.8711 H   0  0  0  0  0  0  0  0  0  0  0  0
   38.7172   29.6033   40.4965 H   0  0  0  0  0  0  0  0  0  0  0  0
   36.6732   33.5541   41.8148 O   0  0  0  0  0  0  0  0  0  0  0  0
   38.1315   33.5363   39.7571 O   0  0  0  0  0  0  0  0  0  0  0  0
  1  2  1  0  0  0  0
  1  3  1  0  0  0  0
  1  4  1  0  0  0  0
  1 19  1  0  0  0  0
  4  5  1  0  0  0  0
  4  6  1  0  0  0  0
  4 15  1  0  0  0  0
  7  8  1  0  0  0  0
  7  9  1  0  0  0  0
  7 10  1  0  0  0  0
  7 15  1  0  0  0  0
 10 11  1  0  0  0  0
 10 12  1  0  0  0  0
 10 19  1  0  0  0  0
 13 14  1  0  0  0  0
 13 17  1  0  0  0  0
 13 24  2  0  0  0  0
 16 32  1  0  0  0  0
 16 38  2  0  0  0  0
 16 39  1  0  0  0  0
 17 33  2  0  0  0  0
 17 34  1  0  0  0  0
 18 37  2  0  0  0  0
 18 40  1  0  0  0  0
 18 41  1  0  0  0  0
 19 20  1  0  0  0  0
 19 41  1  0  0  0  0
 21 22  1  0  0  0  0
 21 29  1  0  0  0  0
 21 30  2  0  0  0  0
 22 23  1  0  0  0  0
 22 32  2  0  0  0  0
 24 25  1  0  0  0  0
 24 35  1  0  0  0  0
 25 26  1  0  0  0  0
 25 27  2  0  0  0  0
 27 28  1  0  0  0  0
 27 33  1  0  0  0  0
 29 39  1  0  0  0  0
 29 40  2  0  0  0  0
 30 31  1  0  0  0  0
 30 37  1  0  0  0  0
 32 36  1  0  0  0  0
 33 36  1  0  0  0  0
 39 55  1  0  0  0  0
 41 42  1  0  0  0  0
 43 44  1  0  0  0  0
 43 49  1  0  0  0  0
 43 60  1  0  0  0  0
 44 45  1  0  0  0  0
 44 63  2  0  0  0  0
 44 64  2  0  0  0  0
 45 46  1  0  0  0  0
 45 47  1  0  0  0  0
 45 48  1  0  0  0  0
 49 50  1  0  0  0  0
 49 51  1  0  0  0  0
 49 52  1  0  0  0  0
 52 53  1  0  0  0  0
 52 54  1  0  0  0  0
 52 55  1  0  0  0  0
 55 56  1  0  0  0  0
 55 57  1  0  0  0  0
 57 58  1  0  0  0  0
 57 59  1  0  0  0  0
 57 60  1  0  0  0  0
 60 61  1  0  0  0  0
 60 62  1  0  0  0  0
M  END
$$$$
p38_goldstein_22_2v
  MOE2024           3D
p38_goldstein_22_2v
 35 37  0  0  0  0  0  0  0  0999 V2000
   34.5680   26.3800   36.1110 C   0  0  0  0  0  0  0  0  0  0  0  0
   33.9022   26.1755   35.2856 H   0  0  0  0  0  0  0  0  0  0  0  0
   35.7210   27.9330   37.5320 C   0  0  0  0  0  0  0  0  0  0  0  0
   35.1180   25.3620   36.7990 N   0  0  0  0  0  0  0  0  0  0  0  0
   34.8570   27.7000   36.4630 C   0  0  0  0  0  0  0  0  0  0  0  0
   34.2980   28.7780   35.7660 C   0  0  0  0  0  0  0  0  0  0  0  0
   33.6308   28.5911   34.9376 H   0  0  0  0  0  0  0  0  0  0  0  0
   34.5960   30.0970   36.1330 C   0  0  0  0  0  0  0  0  0  0  0  0
   35.4600   30.3360   37.1990 C   0  0  0  0  0  0  0  0  0  0  0  0
   35.9610   25.6070   37.8390 C   0  0  0  0  0  0  0  0  0  0  0  0
   37.3460   24.8510   39.7090 C   0  0  0  0  0  0  0  0  0  0  0  0
   37.1041   25.8332   40.1150 H   0  0  0  0  0  0  0  0  0  0  0  0
   38.3906   24.8022   39.4016 H   0  0  0  0  0  0  0  0  0  0  0  0
   37.1594   24.1146   40.4907 H   0  0  0  0  0  0  0  0  0  0  0  0
   33.0870   31.0950   34.5070 C   0  0  0  0  0  0  0  0  0  0  0  0
   33.4280   31.4410   33.2010 C   0  0  0  0  0  0  0  0  0  0  0  0
   34.4317   31.7720   32.9786 H   0  0  0  0  0  0  0  0  0  0  0  0
   32.4840   31.3630   32.1810 C   0  0  0  0  0  0  0  0  0  0  0  0
   32.7587   31.6197   31.1686 H   0  0  0  0  0  0  0  0  0  0  0  0
   31.1840   30.9530   32.4690 C   0  0  0  0  0  0  0  0  0  0  0  0
   30.8300   30.6130   33.7750 C   0  0  0  0  0  0  0  0  0  0  0  0
   29.8219   30.2958   33.9976 H   0  0  0  0  0  0  0  0  0  0  0  0
   31.7840   30.6840   34.7950 C   0  0  0  0  0  0  0  0  0  0  0  0
   30.2820   30.8800   31.4740 F   0  0  0  0  0  0  0  0  0  0  0  0
   31.4230   30.3480   36.0470 F   0  0  0  0  0  0  0  0  0  0  0  0
   34.0610   31.1860   35.4750 O   0  0  0  0  0  0  0  0  0  0  0  0
   35.7230   31.5160   37.5170 O   0  0  0  0  0  0  0  0  0  0  0  0
   36.0360   29.2560   37.9140 N   0  0  0  0  0  0  0  0  0  0  0  0
   36.9500   29.5080   39.0410 C   0  0  0  0  0  0  0  0  0  0  0  0
   37.2843   28.5577   39.4572 H   0  0  0  0  0  0  0  0  0  0  0  0
   36.4296   30.0786   39.8103 H   0  0  0  0  0  0  0  0  0  0  0  0
   37.8126   30.0743   38.6897 H   0  0  0  0  0  0  0  0  0  0  0  0
   36.2550   26.8810   38.1970 N   0  0  0  0  0  0  0  0  0  0  0  0
   36.5190   24.5810   38.5360 N   0  0  0  0  0  0  0  0  0  0  0  0
   36.3607   23.6281   38.2410 H   0  0  0  0  0  0  0  0  0  0  0  0
  1  2  1  0  0  0  0
  1  4  1  0  0  0  0
  1  5  2  0  0  0  0
  3  5  1  0  0  0  0
  3 28  1  0  0  0  0
  3 33  2  0  0  0  0
  4 10  2  0  0  0  0
  5  6  1  0  0  0  0
  6  7  1  0  0  0  0
  6  8  2  0  0  0  0
  8  9  1  0  0  0  0
  8 26  1  0  0  0  0
  9 27  2  0  0  0  0
  9 28  1  0  0  0  0
 10 33  1  0  0  0  0
 10 34  1  0  0  0  0
 11 12  1  0  0  0  0
 11 13  1  0  0  0  0
 11 14  1  0  0  0  0
 11 34  1  0  0  0  0
 15 16  1  0  0  0  0
 15 23  2  0  0  0  0
 15 26  1  0  0  0  0
 16 17  1  0  0  0  0
 16 18  2  0  0  0  0
 18 19  1  0  0  0  0
 18 20  1  0  0  0  0
 20 21  2  0  0  0  0
 20 24  1  0  0  0  0
 21 22  1  0  0  0  0
 21 23  1  0  0  0  0
 23 25  1  0  0  0  0
 28 29  1  0  0  0  0
 29 30  1  0  0  0  0
 29 31  1  0  0  0  0
 29 32  1  0  0  0  0
 34 35  1  0  0  0  0
M  END
$$$$
p38_goldstein_23_2w_3fly
  MOE2024           3D
p38_goldstein_23_2w_3fly
 41 43  0  0  0  0  0  0  0  0999 V2000
   34.5680   26.3800   36.1110 C   0  0  0  0  0  0  0  0  0  0  0  0
   33.9022   26.1755   35.2856 H   0  0  0  0  0  0  0  0  0  0  0  0
   35.7210   27.9330   37.5320 C   0  0  0  0  0  0  0  0  0  0  0  0
   35.1180   25.3620   36.7990 N   0  0  0  0  0  0  0  0  0  0  0  0
   34.8570   27.7000   36.4630 C   0  0  0  0  0  0  0  0  0  0  0  0
   34.2980   28.7780   35.7660 C   0  0  0  0  0  0  0  0  0  0  0  0
   33.6308   28.5911   34.9376 H   0  0  0  0  0  0  0  0  0  0  0  0
   34.5960   30.0970   36.1330 C   0  0  0  0  0  0  0  0  0  0  0  0
   35.4600   30.3360   37.1990 C   0  0  0  0  0  0  0  0  0  0  0  0
   35.9610   25.6070   37.8390 C   0  0  0  0  0  0  0  0  0  0  0  0
   37.3460   24.8510   39.7090 C   0  0  0  0  0  0  0  0  0  0  0  0
   37.1041   25.8332   40.1150 H   0  0  0  0  0  0  0  0  0  0  0  0
   37.0600   23.8270   40.8050 C   0  0  0  0  0  0  0  0  0  0  0  0
   37.2902   22.8271   40.4371 H   0  0  0  0  0  0  0  0  0  0  0  0
   36.0076   23.8780   41.0843 H   0  0  0  0  0  0  0  0  0  0  0  0
   37.6780   24.0449   41.6760 H   0  0  0  0  0  0  0  0  0  0  0  0
   38.8180   24.8550   39.3010 C   0  0  0  0  0  0  0  0  0  0  0  0
   39.0840   23.8807   38.8910 H   0  0  0  0  0  0  0  0  0  0  0  0
   39.4365   25.0630   40.1741 H   0  0  0  0  0  0  0  0  0  0  0  0
   38.9839   25.6242   38.5467 H   0  0  0  0  0  0  0  0  0  0  0  0
   33.0870   31.0950   34.5070 C   0  0  0  0  0  0  0  0  0  0  0  0
   33.4280   31.4410   33.2010 C   0  0  0  0  0  0  0  0  0  0  0  0
   34.4317   31.7720   32.9786 H   0  0  0  0  0  0  0  0  0  0  0  0
   32.4840   31.3630   32.1810 C   0  0  0  0  0  0  0  0  0  0  0  0
   32.7587   31.6197   31.1686 H   0  0  0  0  0  0  0  0  0  0  0  0
   31.1840   30.9530   32.4690 C   0  0  0  0  0  0  0  0  0  0  0  0
   30.8300   30.6130   33.7750 C   0  0  0  0  0  0  0  0  0  0  0  0
   29.8219   30.2958   33.9976 H   0  0  0  0  0  0  0  0  0  0  0  0
   31.7840   30.6840   34.7950 C   0  0  0  0  0  0  0  0  0  0  0  0
   30.2820   30.8800   31.4740 F   0  0  0  0  0  0  0  0  0  0  0  0
   31.4230   30.3480   36.0470 F   0  0  0  0  0  0  0  0  0  0  0  0
   34.0610   31.1860   35.4750 O   0  0  0  0  0  0  0  0  0  0  0  0
   35.7230   31.5160   37.5170 O   0  0  0  0  0  0  0  0  0  0  0  0
   36.0360   29.2560   37.9140 N   0  0  0  0  0  0  0  0  0  0  0  0
   36.9500   29.5080   39.0410 C   0  0  0  0  0  0  0  0  0  0  0  0
   37.2843   28.5577   39.4572 H   0  0  0  0  0  0  0  0  0  0  0  0
   36.4296   30.0786   39.8103 H   0  0  0  0  0  0  0  0  0  0  0  0
   37.8126   30.0743   38.6897 H   0  0  0  0  0  0  0  0  0  0  0  0
   36.2550   26.8810   38.1970 N   0  0  0  0  0  0  0  0  0  0  0  0
   36.5190   24.5810   38.5360 N   0  0  0  0  0  0  0  0  0  0  0  0
   36.3607   23.6281   38.2410 H   0  0  0  0  0  0  0  0  0  0  0  0
  1  2  1  0  0  0  0
  1  4  1  0  0  0  0
  1  5  2  0  0  0  0
  3  5  1  0  0  0  0
  3 34  1  0  0  0  0
  3 39  2  0  0  0  0
  4 10  2  0  0  0  0
  5  6  1  0  0  0  0
  6  7  1  0  0  0  0
  6  8  2  0  0  0  0
  8  9  1  0  0  0  0
  8 32  1  0  0  0  0
  9 33  2  0  0  0  0
  9 34  1  0  0  0  0
 10 39  1  0  0  0  0
 10 40  1  0  0  0  0
 11 12  1  0  0  0  0
 11 13  1  0  0  0  0
 11 17  1  0  0  0  0
 11 40  1  0  0  0  0
 13 14  1  0  0  0  0
 13 15  1  0  0  0  0
 13 16  1  0  0  0  0
 17 18  1  0  0  0  0
 17 19  1  0  0  0  0
 17 20  1  0  0  0  0
 21 22  1  0  0  0  0
 21 29  2  0  0  0  0
 21 32  1  0  0  0  0
 22 23  1  0  0  0  0
 22 24  2  0  0  0  0
 24 25  1  0  0  0  0
 24 26  1  0  0  0  0
 26 27  2  0  0  0  0
 26 30  1  0  0  0  0
 27 28  1  0  0  0  0
 27 29  1  0  0  0  0
 29 31  1  0  0  0  0
 34 35  1  0  0  0  0
 35 36  1  0  0  0  0
 35 37  1  0  0  0  0
 35 38  1  0  0  0  0
 40 41  1  0  0  0  0
M  END
$$$$
p38_goldstein_24_2x
  MOE2024           3D
p38_goldstein_24_2x
 43 46  0  0  1  0  0  0  0  0999 V2000
   34.5680   26.3800   36.1110 C   0  0  0  0  0  0  0  0  0  0  0  0
   33.9022   26.1755   35.2856 H   0  0  0  0  0  0  0  0  0  0  0  0
   35.7210   27.9330   37.5320 C   0  0  0  0  0  0  0  0  0  0  0  0
   35.1180   25.3620   36.7990 N   0  0  0  0  0  0  0  0  0  0  0  0
   34.8570   27.7000   36.4630 C   0  0  0  0  0  0  0  0  0  0  0  0
   34.2980   28.7780   35.7660 C   0  0  0  0  0  0  0  0  0  0  0  0
   33.6308   28.5911   34.9376 H   0  0  0  0  0  0  0  0  0  0  0  0
   34.5960   30.0970   36.1330 C   0  0  0  0  0  0  0  0  0  0  0  0
   35.4600   30.3360   37.1990 C   0  0  0  0  0  0  0  0  0  0  0  0
   35.9610   25.6070   37.8390 C   0  0  0  0  0  0  0  0  0  0  0  0
   33.0870   31.0950   34.5070 C   0  0  0  0  0  0  0  0  0  0  0  0
   33.4280   31.4410   33.2010 C   0  0  0  0  0  0  0  0  0  0  0  0
   34.4317   31.7720   32.9786 H   0  0  0  0  0  0  0  0  0  0  0  0
   32.4840   31.3630   32.1810 C   0  0  0  0  0  0  0  0  0  0  0  0
   32.7587   31.6197   31.1686 H   0  0  0  0  0  0  0  0  0  0  0  0
   31.1840   30.9530   32.4690 C   0  0  0  0  0  0  0  0  0  0  0  0
   30.8300   30.6130   33.7750 C   0  0  0  0  0  0  0  0  0  0  0  0
   29.8219   30.2958   33.9976 H   0  0  0  0  0  0  0  0  0  0  0  0
   31.7840   30.6840   34.7950 C   0  0  0  0  0  0  0  0  0  0  0  0
   30.2820   30.8800   31.4740 F   0  0  0  0  0  0  0  0  0  0  0  0
   31.4230   30.3480   36.0470 F   0  0  0  0  0  0  0  0  0  0  0  0
   34.0610   31.1860   35.4750 O   0  0  0  0  0  0  0  0  0  0  0  0
   35.7230   31.5160   37.5170 O   0  0  0  0  0  0  0  0  0  0  0  0
   36.0360   29.2560   37.9140 N   0  0  0  0  0  0  0  0  0  0  0  0
   36.9500   29.5080   39.0410 C   0  0  0  0  0  0  0  0  0  0  0  0
   37.2843   28.5577   39.4572 H   0  0  0  0  0  0  0  0  0  0  0  0
   36.4296   30.0786   39.8103 H   0  0  0  0  0  0  0  0  0  0  0  0
   37.8126   30.0743   38.6897 H   0  0  0  0  0  0  0  0  0  0  0  0
   36.2550   26.8810   38.1970 N   0  0  0  0  0  0  0  0  0  0  0  0
   36.5190   24.5810   38.5360 N   0  0  0  0  0  0  0  0  0  0  0  0
   36.3607   23.6281   38.2410 H   0  0  0  0  0  0  0  0  0  0  0  0
   39.3228   23.7692   38.9288 O   0  0  0  0  0  0  0  0  0  0  0  0
   38.7177   25.1393   39.2089 C   0  0  0  0  0  0  0  0  0  0  0  0
   38.7680   25.8011   38.3393 H   0  0  0  0  0  0  0  0  0  0  0  0
   39.2553   25.6230   40.0331 H   0  0  0  0  0  0  0  0  0  0  0  0
   37.2884   24.8376   39.6277 C   0  0  3  0  0  0  0  0  0  0  0  0
   36.8340   25.6628   40.1844 H   0  0  0  0  0  0  0  0  0  0  0  0
   37.4422   23.5849   40.4727 C   0  0  0  0  0  0  0  0  0  0  0  0
   36.5013   23.0384   40.5857 H   0  0  0  0  0  0  0  0  0  0  0  0
   37.8018   23.8497   41.4738 H   0  0  0  0  0  0  0  0  0  0  0  0
   38.5019   22.7677   39.7419 C   0  0  0  0  0  0  0  0  0  0  0  0
   38.0285   22.0438   39.0693 H   0  0  0  0  0  0  0  0  0  0  0  0
   39.1242   22.2035   40.4444 H   0  0  0  0  0  0  0  0  0  0  0  0
  1  2  1  0  0  0  0
  1  4  1  0  0  0  0
  1  5  2  0  0  0  0
  3  5  1  0  0  0  0
  3 24  1  0  0  0  0
  3 29  2  0  0  0  0
  4 10  2  0  0  0  0
  5  6  1  0  0  0  0
  6  7  1  0  0  0  0
  6  8  2  0  0  0  0
  8  9  1  0  0  0  0
  8 22  1  0  0  0  0
  9 23  2  0  0  0  0
  9 24  1  0  0  0  0
 10 29  1  0  0  0  0
 10 30  1  0  0  0  0
 11 12  1  0  0  0  0
 11 19  2  0  0  0  0
 11 22  1  0  0  0  0
 12 13  1  0  0  0  0
 12 14  2  0  0  0  0
 14 15  1  0  0  0  0
 14 16  1  0  0  0  0
 16 17  2  0  0  0  0
 16 20  1  0  0  0  0
 17 18  1  0  0  0  0
 17 19  1  0  0  0  0
 19 21  1  0  0  0  0
 24 25  1  0  0  0  0
 25 26  1  0  0  0  0
 25 27  1  0  0  0  0
 25 28  1  0  0  0  0
 30 31  1  0  0  0  0
 30 36  1  0  0  0  0
 32 33  1  0  0  0  0
 32 41  1  0  0  0  0
 33 34  1  0  0  0  0
 33 35  1  0  0  0  0
 33 36  1  0  0  0  0
 36 37  1  0  0  0  0
 36 38  1  0  0  0  0
 38 39  1  0  0  0  0
 38 40  1  0  0  0  0
 38 41  1  0  0  0  0
 41 42  1  0  0  0  0
 41 43  1  0  0  0  0
M  END
$$$$
p38_goldstein_25_2y.C
  MOE2024           3D
p38_goldstein_25_2y
 45 47  0  0  0  0  0  0  0  0999 V2000
   30.8350   30.5460   33.6160 C   0  0  0  0  0  0  0  0  0  0  0  0
   29.8290   30.2165   33.8301 H   0  0  0  0  0  0  0  0  0  0  0  0
   35.2410   30.3490   37.3210 C   0  0  0  0  0  0  0  0  0  0  0  0
   31.7830   30.6110   34.6350 C   0  0  0  0  0  0  0  0  0  0  0  0
   35.6140   25.6240   38.0940 C   0  0  0  0  0  0  0  0  0  0  0  0
   36.8090   24.9080   40.1150 C   0  0  0  0  0  0  0  0  0  0  0  0
   36.4892   25.8475   40.5656 H   0  0  0  0  0  0  0  0  0  0  0  0
   37.8663   24.9745   39.8586 H   0  0  0  0  0  0  0  0  0  0  0  0
   36.5353   23.8156   41.1179 C   0  0  0  0  0  0  0  0  0  0  0  0
   37.2873   24.1039   42.3929 C   0  0  0  0  0  0  0  0  0  0  0  0
   36.9599   25.0608   42.7994 H   0  0  0  0  0  0  0  0  0  0  0  0
   38.3561   24.1449   42.1829 H   0  0  0  0  0  0  0  0  0  0  0  0
   37.0894   23.3143   43.1178 H   0  0  0  0  0  0  0  0  0  0  0  0
   36.9612   22.5708   40.5891 O   0  0  0  0  0  0  0  0  0  0  0  0
   36.7750   21.8969   41.2470 H   0  0  0  0  0  0  0  0  0  0  0  0
   35.0566   23.7589   41.4084 C   0  0  0  0  0  0  0  0  0  0  0  0
   34.7292   24.7158   41.8149 H   0  0  0  0  0  0  0  0  0  0  0  0
   34.8587   22.9693   42.1333 H   0  0  0  0  0  0  0  0  0  0  0  0
   34.5130   23.5506   40.4869 H   0  0  0  0  0  0  0  0  0  0  0  0
   34.7100   27.6810   36.5310 C   0  0  0  0  0  0  0  0  0  0  0  0
   34.2440   28.7240   35.7240 C   0  0  0  0  0  0  0  0  0  0  0  0
   33.6969   28.4999   34.8202 H   0  0  0  0  0  0  0  0  0  0  0  0
   31.1930   30.9090   32.3180 C   0  0  0  0  0  0  0  0  0  0  0  0
   32.4860   31.3350   32.0370 C   0  0  0  0  0  0  0  0  0  0  0  0
   32.7594   31.6084   31.0286 H   0  0  0  0  0  0  0  0  0  0  0  0
   33.4280   31.4080   33.0610 C   0  0  0  0  0  0  0  0  0  0  0  0
   34.4299   31.7510   32.8488 H   0  0  0  0  0  0  0  0  0  0  0  0
   35.4200   27.9480   37.7070 C   0  0  0  0  0  0  0  0  0  0  0  0
   34.4800   26.3490   36.1740 C   0  0  0  0  0  0  0  0  0  0  0  0
   33.9374   26.1220   35.2682 H   0  0  0  0  0  0  0  0  0  0  0  0
   34.4820   30.0550   36.0800 C   0  0  0  0  0  0  0  0  0  0  0  0
   33.0800   31.0400   34.3550 C   0  0  0  0  0  0  0  0  0  0  0  0
   36.4500   29.5370   39.3560 C   0  0  0  0  0  0  0  0  0  0  0  0
   36.5574   30.6127   39.4951 H   0  0  0  0  0  0  0  0  0  0  0  0
   37.4368   29.0795   39.2848 H   0  0  0  0  0  0  0  0  0  0  0  0
   35.9132   29.1127   40.2045 H   0  0  0  0  0  0  0  0  0  0  0  0
   31.4320   30.2560   35.8800 F   0  0  0  0  0  0  0  0  0  0  0  0
   30.2920   30.8400   31.3240 F   0  0  0  0  0  0  0  0  0  0  0  0
   34.0420   31.1260   35.3340 O   0  0  0  0  0  0  0  0  0  0  0  0
   34.9300   25.3500   36.9510 N   0  0  0  0  0  0  0  0  0  0  0  0
   35.4550   31.5390   37.6440 O   0  0  0  0  0  0  0  0  0  0  0  0
   35.6970   29.2750   38.1180 N   0  0  0  0  0  0  0  0  0  0  0  0
   35.8510   26.9090   38.4580 N   0  0  0  0  0  0  0  0  0  0  0  0
   36.0750   24.6170   38.8850 N   0  0  0  0  0  0  0  0  0  0  0  0
   35.9079   23.6571   38.6189 H   0  0  0  0  0  0  0  0  0  0  0  0
  1  2  1  0  0  0  0
  1  4  1  0  0  0  0
  1 23  2  0  0  0  0
  3 31  1  0  0  0  0
  3 41  2  0  0  0  0
  3 42  1  0  0  0  0
  4 32  2  0  0  0  0
  4 37  1  0  0  0  0
  5 40  2  0  0  0  0
  5 43  1  0  0  0  0
  5 44  1  0  0  0  0
  6  7  1  0  0  0  0
  6  8  1  0  0  0  0
  6  9  1  0  0  0  0
  6 44  1  0  0  0  0
  9 10  1  0  0  0  0
  9 14  1  0  0  0  0
  9 16  1  0  0  0  0
 10 11  1  0  0  0  0
 10 12  1  0  0  0  0
 10 13  1  0  0  0  0
 14 15  1  0  0  0  0
 16 17  1  0  0  0  0
 16 18  1  0  0  0  0
 16 19  1  0  0  0  0
 20 21  1  0  0  0  0
 20 28  1  0  0  0  0
 20 29  2  0  0  0  0
 21 22  1  0  0  0  0
 21 31  2  0  0  0  0
 23 24  1  0  0  0  0
 23 38  1  0  0  0  0
 24 25  1  0  0  0  0
 24 26  2  0  0  0  0
 26 27  1  0  0  0  0
 26 32  1  0  0  0  0
 28 42  1  0  0  0  0
 28 43  2  0  0  0  0
 29 30  1  0  0  0  0
 29 40  1  0  0  0  0
 31 39  1  0  0  0  0
 32 39  1  0  0  0  0
 33 34  1  0  0  0  0
 33 35  1  0  0  0  0
 33 36  1  0  0  0  0
 33 42  1  0  0  0  0
 44 45  1  0  0  0  0
M  END
$$$$
p38_goldstein_26_2z
  MOE2024           3D
p38_goldstein_26_2z
 45 47  0  0  0  0  0  0  0  0999 V2000
   34.5680   26.3800   36.1110 C   0  0  0  0  0  0  0  0  0  0  0  0
   33.9022   26.1755   35.2856 H   0  0  0  0  0  0  0  0  0  0  0  0
   35.7210   27.9330   37.5320 C   0  0  0  0  0  0  0  0  0  0  0  0
   35.1180   25.3620   36.7990 N   0  0  0  0  0  0  0  0  0  0  0  0
   34.8570   27.7000   36.4630 C   0  0  0  0  0  0  0  0  0  0  0  0
   34.2980   28.7780   35.7660 C   0  0  0  0  0  0  0  0  0  0  0  0
   33.6308   28.5911   34.9376 H   0  0  0  0  0  0  0  0  0  0  0  0
   34.5960   30.0970   36.1330 C   0  0  0  0  0  0  0  0  0  0  0  0
   35.4600   30.3360   37.1990 C   0  0  0  0  0  0  0  0  0  0  0  0
   35.9610   25.6070   37.8390 C   0  0  0  0  0  0  0  0  0  0  0  0
   37.3460   24.8510   39.7090 C   0  0  0  0  0  0  0  0  0  0  0  0
   37.0113   26.2099   40.2707 C   0  0  0  0  0  0  0  0  0  0  0  0
   37.8188   26.4629   41.4085 O   0  0  0  0  0  0  0  0  0  0  0  0
   37.5845   27.3316   41.7434 H   0  0  0  0  0  0  0  0  0  0  0  0
   35.9602   26.2354   40.5581 H   0  0  0  0  0  0  0  0  0  0  0  0
   37.1998   26.9721   39.5146 H   0  0  0  0  0  0  0  0  0  0  0  0
   37.0600   23.8270   40.8050 C   0  0  0  0  0  0  0  0  0  0  0  0
   37.2902   22.8271   40.4371 H   0  0  0  0  0  0  0  0  0  0  0  0
   36.0076   23.8780   41.0843 H   0  0  0  0  0  0  0  0  0  0  0  0
   37.6780   24.0449   41.6760 H   0  0  0  0  0  0  0  0  0  0  0  0
   38.8180   24.8550   39.3010 C   0  0  0  0  0  0  0  0  0  0  0  0
   39.0840   23.8807   38.8910 H   0  0  0  0  0  0  0  0  0  0  0  0
   38.9839   25.6242   38.5467 H   0  0  0  0  0  0  0  0  0  0  0  0
   39.4365   25.0630   40.1741 H   0  0  0  0  0  0  0  0  0  0  0  0
   33.0870   31.0950   34.5070 C   0  0  0  0  0  0  0  0  0  0  0  0
   33.4280   31.4410   33.2010 C   0  0  0  0  0  0  0  0  0  0  0  0
   34.4317   31.7720   32.9786 H   0  0  0  0  0  0  0  0  0  0  0  0
   32.4840   31.3630   32.1810 C   0  0  0  0  0  0  0  0  0  0  0  0
   32.7587   31.6197   31.1686 H   0  0  0  0  0  0  0  0  0  0  0  0
   31.1840   30.9530   32.4690 C   0  0  0  0  0  0  0  0  0  0  0  0
   30.8300   30.6130   33.7750 C   0  0  0  0  0  0  0  0  0  0  0  0
   29.8219   30.2958   33.9976 H   0  0  0  0  0  0  0  0  0  0  0  0
   31.7840   30.6840   34.7950 C   0  0  0  0  0  0  0  0  0  0  0  0
   30.2820   30.8800   31.4740 F   0  0  0  0  0  0  0  0  0  0  0  0
   31.4230   30.3480   36.0470 F   0  0  0  0  0  0  0  0  0  0  0  0
   34.0610   31.1860   35.4750 O   0  0  0  0  0  0  0  0  0  0  0  0
   35.7230   31.5160   37.5170 O   0  0  0  0  0  0  0  0  0  0  0  0
   36.0360   29.2560   37.9140 N   0  0  0  0  0  0  0  0  0  0  0  0
   36.9500   29.5080   39.0410 C   0  0  0  0  0  0  0  0  0  0  0  0
   37.2843   28.5577   39.4572 H   0  0  0  0  0  0  0  0  0  0  0  0
   36.4296   30.0786   39.8103 H   0  0  0  0  0  0  0  0  0  0  0  0
   37.8126   30.0743   38.6897 H   0  0  0  0  0  0  0  0  0  0  0  0
   36.2550   26.8810   38.1970 N   0  0  0  0  0  0  0  0  0  0  0  0
   36.5190   24.5810   38.5360 N   0  0  0  0  0  0  0  0  0  0  0  0
   36.3607   23.6281   38.2410 H   0  0  0  0  0  0  0  0  0  0  0  0
  1  2  1  0  0  0  0
  1  4  1  0  0  0  0
  1  5  2  0  0  0  0
  3  5  1  0  0  0  0
  3 38  1  0  0  0  0
  3 43  2  0  0  0  0
  4 10  2  0  0  0  0
  5  6  1  0  0  0  0
  6  7  1  0  0  0  0
  6  8  2  0  0  0  0
  8  9  1  0  0  0  0
  8 36  1  0  0  0  0
  9 37  2  0  0  0  0
  9 38  1  0  0  0  0
 10 43  1  0  0  0  0
 10 44  1  0  0  0  0
 11 12  1  0  0  0  0
 11 17  1  0  0  0  0
 11 21  1  0  0  0  0
 11 44  1  0  0  0  0
 12 13  1  0  0  0  0
 12 15  1  0  0  0  0
 12 16  1  0  0  0  0
 13 14  1  0  0  0  0
 17 18  1  0  0  0  0
 17 19  1  0  0  0  0
 17 20  1  0  0  0  0
 21 22  1  0  0  0  0
 21 23  1  0  0  0  0
 21 24  1  0  0  0  0
 25 26  1  0  0  0  0
 25 33  2  0  0  0  0
 25 36  1  0  0  0  0
 26 27  1  0  0  0  0
 26 28  2  0  0  0  0
 28 29  1  0  0  0  0
 28 30  1  0  0  0  0
 30 31  2  0  0  0  0
 30 34  1  0  0  0  0
 31 32  1  0  0  0  0
 31 33  1  0  0  0  0
 33 35  1  0  0  0  0
 38 39  1  0  0  0  0
 39 40  1  0  0  0  0
 39 41  1  0  0  0  0
 39 42  1  0  0  0  0
 44 45  1  0  0  0  0
M  END
$$$$
p38_goldstein_27_2aa
  MOE2024           3D
p38_goldstein_27_2aa
 43 45  0  0  0  0  0  0  0  0999 V2000
   34.5680   26.3800   36.1110 C   0  0  0  0  0  0  0  0  0  0  0  0
   33.9022   26.1755   35.2856 H   0  0  0  0  0  0  0  0  0  0  0  0
   35.7210   27.9330   37.5320 C   0  0  0  0  0  0  0  0  0  0  0  0
   35.1180   25.3620   36.7990 N   0  0  0  0  0  0  0  0  0  0  0  0
   34.8570   27.7000   36.4630 C   0  0  0  0  0  0  0  0  0  0  0  0
   34.2980   28.7780   35.7660 C   0  0  0  0  0  0  0  0  0  0  0  0
   33.6308   28.5911   34.9376 H   0  0  0  0  0  0  0  0  0  0  0  0
   34.5960   30.0970   36.1330 C   0  0  0  0  0  0  0  0  0  0  0  0
   35.4600   30.3360   37.1990 C   0  0  0  0  0  0  0  0  0  0  0  0
   35.9610   25.6070   37.8390 C   0  0  0  0  0  0  0  0  0  0  0  0
   37.3460   24.8510   39.7090 C   0  0  0  0  0  0  0  0  0  0  0  0
   37.1041   25.8332   40.1150 H   0  0  0  0  0  0  0  0  0  0  0  0
   37.0600   23.8270   40.8050 C   0  0  0  0  0  0  0  0  0  0  0  0
   37.2902   22.8271   40.4371 H   0  0  0  0  0  0  0  0  0  0  0  0
   36.0076   23.8780   41.0843 H   0  0  0  0  0  0  0  0  0  0  0  0
   37.8640   24.1105   41.9381 O   0  0  0  0  0  0  0  0  0  0  0  0
   37.6634   23.4530   42.6082 H   0  0  0  0  0  0  0  0  0  0  0  0
   38.8180   24.8550   39.3010 C   0  0  0  0  0  0  0  0  0  0  0  0
   39.0840   23.8807   38.8910 H   0  0  0  0  0  0  0  0  0  0  0  0
   39.6226   25.1256   40.4368 O   0  0  0  0  0  0  0  0  0  0  0  0
   40.5390   25.1218   40.1509 H   0  0  0  0  0  0  0  0  0  0  0  0
   38.9839   25.6242   38.5467 H   0  0  0  0  0  0  0  0  0  0  0  0
   33.0870   31.0950   34.5070 C   0  0  0  0  0  0  0  0  0  0  0  0
   33.4280   31.4410   33.2010 C   0  0  0  0  0  0  0  0  0  0  0  0
   34.4317   31.7720   32.9786 H   0  0  0  0  0  0  0  0  0  0  0  0
   32.4840   31.3630   32.1810 C   0  0  0  0  0  0  0  0  0  0  0  0
   32.7587   31.6197   31.1686 H   0  0  0  0  0  0  0  0  0  0  0  0
   31.1840   30.9530   32.4690 C   0  0  0  0  0  0  0  0  0  0  0  0
   30.8300   30.6130   33.7750 C   0  0  0  0  0  0  0  0  0  0  0  0
   29.8219   30.2958   33.9976 H   0  0  0  0  0  0  0  0  0  0  0  0
   31.7840   30.6840   34.7950 C   0  0  0  0  0  0  0  0  0  0  0  0
   30.2820   30.8800   31.4740 F   0  0  0  0  0  0  0  0  0  0  0  0
   31.4230   30.3480   36.0470 F   0  0  0  0  0  0  0  0  0  0  0  0
   34.0610   31.1860   35.4750 O   0  0  0  0  0  0  0  0  0  0  0  0
   35.7230   31.5160   37.5170 O   0  0  0  0  0  0  0  0  0  0  0  0
   36.0360   29.2560   37.9140 N   0  0  0  0  0  0  0  0  0  0  0  0
   36.9500   29.5080   39.0410 C   0  0  0  0  0  0  0  0  0  0  0  0
   37.2843   28.5577   39.4572 H   0  0  0  0  0  0  0  0  0  0  0  0
   36.4296   30.0786   39.8103 H   0  0  0  0  0  0  0  0  0  0  0  0
   37.8126   30.0743   38.6897 H   0  0  0  0  0  0  0  0  0  0  0  0
   36.2550   26.8810   38.1970 N   0  0  0  0  0  0  0  0  0  0  0  0
   36.5190   24.5810   38.5360 N   0  0  0  0  0  0  0  0  0  0  0  0
   36.3607   23.6281   38.2410 H   0  0  0  0  0  0  0  0  0  0  0  0
  1  2  1  0  0  0  0
  1  4  1  0  0  0  0
  1  5  2  0  0  0  0
  3  5  1  0  0  0  0
  3 36  1  0  0  0  0
  3 41  2  0  0  0  0
  4 10  2  0  0  0  0
  5  6  1  0  0  0  0
  6  7  1  0  0  0  0
  6  8  2  0  0  0  0
  8  9  1  0  0  0  0
  8 34  1  0  0  0  0
  9 35  2  0  0  0  0
  9 36  1  0  0  0  0
 10 41  1  0  0  0  0
 10 42  1  0  0  0  0
 11 12  1  0  0  0  0
 11 13  1  0  0  0  0
 11 18  1  0  0  0  0
 11 42  1  0  0  0  0
 13 14  1  0  0  0  0
 13 15  1  0  0  0  0
 13 16  1  0  0  0  0
 16 17  1  0  0  0  0
 18 19  1  0  0  0  0
 18 20  1  0  0  0  0
 18 22  1  0  0  0  0
 20 21  1  0  0  0  0
 23 24  1  0  0  0  0
 23 31  2  0  0  0  0
 23 34  1  0  0  0  0
 24 25  1  0  0  0  0
 24 26  2  0  0  0  0
 26 27  1  0  0  0  0
 26 28  1  0  0  0  0
 28 29  2  0  0  0  0
 28 32  1  0  0  0  0
 29 30  1  0  0  0  0
 29 31  1  0  0  0  0
 31 33  1  0  0  0  0
 36 37  1  0  0  0  0
 37 38  1  0  0  0  0
 37 39  1  0  0  0  0
 37 40  1  0  0  0  0
 42 43  1  0  0  0  0
M  END
$$$$
p38_goldstein_28_2bb.X
  MOE2024           3D
p38_goldstein_28_2bb
 44 46  0  0  0  0  0  0  0  0999 V2000
   30.8040   30.4530   33.6070 C   0  0  0  0  0  0  0  0  0  0  0  0
   35.2240   30.2680   37.4350 C   0  0  0  0  0  0  0  0  0  0  0  0
   31.6700   30.4650   34.7180 C   0  0  0  0  0  0  0  0  0  0  0  0
   35.7160   25.5680   38.0950 C   0  0  0  0  0  0  0  0  0  0  0  0
   36.9380   24.6240   40.1310 C   0  0  0  0  0  0  0  0  0  0  0  0
   34.7470   27.5780   36.6010 C   0  0  0  0  0  0  0  0  0  0  0  0
   34.1930   28.7020   35.8540 C   0  0  0  0  0  0  0  0  0  0  0  0
   31.2530   30.9140   32.3540 C   0  0  0  0  0  0  0  0  0  0  0  0
   32.5590   31.4150   32.2190 C   0  0  0  0  0  0  0  0  0  0  0  0
   33.4150   31.4510   33.3340 C   0  0  0  0  0  0  0  0  0  0  0  0
   35.4600   27.8430   37.7890 C   0  0  0  0  0  0  0  0  0  0  0  0
   34.5950   26.2280   36.2200 C   0  0  0  0  0  0  0  0  0  0  0  0
   34.3880   29.9730   36.2670 C   0  0  0  0  0  0  0  0  0  0  0  0
   32.9830   30.9640   34.5830 C   0  0  0  0  0  0  0  0  0  0  0  0
   36.4270   29.4620   39.4070 C   0  0  0  0  0  0  0  0  0  0  0  0
   31.2490   29.9950   35.8920 F   0  0  0  0  0  0  0  0  0  0  0  0
   33.8230   31.0760   35.6610 O   0  0  0  0  0  0  0  0  0  0  0  0
   35.0750   25.2180   36.9790 N   0  0  0  0  0  0  0  0  0  0  0  0
   35.5240   31.4260   37.7260 O   0  0  0  0  0  0  0  0  0  0  0  0
   35.6590   29.2070   38.1760 N   0  0  0  0  0  0  0  0  0  0  0  0
   35.9380   26.8120   38.5210 N   0  0  0  0  0  0  0  0  0  0  0  0
   36.1990   24.5410   38.8770 N   0  0  0  0  0  0  0  0  0  0  0  0
   29.8010   30.0710   33.7100 H   0  0  0  0  0  0  0  0  0  0  0  0
   36.7090   25.5750   40.6120 H   0  0  0  0  0  0  0  0  0  0  0  0
   33.5850   28.4640   34.9960 H   0  0  0  0  0  0  0  0  0  0  0  0
   32.9030   31.7810   31.2630 H   0  0  0  0  0  0  0  0  0  0  0  0
   34.4040   31.8720   33.2360 H   0  0  0  0  0  0  0  0  0  0  0  0
   34.0630   25.9590   35.3210 H   0  0  0  0  0  0  0  0  0  0  0  0
   36.1510   28.7630   40.1960 H   0  0  0  0  0  0  0  0  0  0  0  0
   37.4930   29.3440   39.2090 H   0  0  0  0  0  0  0  0  0  0  0  0
   36.2710   30.4560   39.8290 H   0  0  0  0  0  0  0  0  0  0  0  0
   35.9960   23.6080   38.5430 H   0  0  0  0  0  0  0  0  0  0  0  0
   30.4480   30.8680   31.2920 F   0  0  0  0  0  0  0  0  0  0  0  0
   36.5330   23.4920   41.0270 C   0  0  0  0  0  0  0  0  0  0  0  0
   38.0070   24.5620   39.9280 H   0  0  0  0  0  0  0  0  0  0  0  0
   35.4640   23.5540   41.2310 H   0  0  0  0  0  0  0  0  0  0  0  0
   36.7550   22.5430   40.5370 H   0  0  0  0  0  0  0  0  0  0  0  0
   37.0460   22.4670   43.4750 C   0  0  0  0  0  0  0  0  0  0  0  0
   37.4580   23.6030   42.5870 S   0  0  0  0  0  0  0  0  0  0  0  0
   38.8990   23.4410   42.2800 O   0  0  0  0  0  0  0  0  0  0  0  0
   37.0770   24.8690   43.2570 O   0  0  0  0  0  0  0  0  0  0  0  0
   35.9880   22.5610   43.7180 H   0  0  0  0  0  0  0  0  0  0  0  0
   37.2180   21.5220   42.9600 H   0  0  0  0  0  0  0  0  0  0  0  0
   37.6330   22.4920   44.3940 H   0  0  0  0  0  0  0  0  0  0  0  0
  1  3  1  0  0  0  0
  1  8  2  0  0  0  0
  1 23  1  0  0  0  0
  2 13  1  0  0  0  0
  2 19  2  0  0  0  0
  2 20  1  0  0  0  0
  3 14  2  0  0  0  0
  3 16  1  0  0  0  0
  4 18  2  0  0  0  0
  4 21  1  0  0  0  0
  4 22  1  0  0  0  0
  5 22  1  0  0  0  0
  5 24  1  0  0  0  0
  5 34  1  0  0  0  0
  5 35  1  0  0  0  0
  6  7  1  0  0  0  0
  6 11  1  0  0  0  0
  6 12  2  0  0  0  0
  7 13  2  0  0  0  0
  7 25  1  0  0  0  0
  8  9  1  0  0  0  0
  8 33  1  0  0  0  0
  9 10  2  0  0  0  0
  9 26  1  0  0  0  0
 10 14  1  0  0  0  0
 10 27  1  0  0  0  0
 11 20  1  0  0  0  0
 11 21  2  0  0  0  0
 12 18  1  0  0  0  0
 12 28  1  0  0  0  0
 13 17  1  0  0  0  0
 14 17  1  0  0  0  0
 15 20  1  0  0  0  0
 15 29  1  0  0  0  0
 15 30  1  0  0  0  0
 15 31  1  0  0  0  0
 22 32  1  0  0  0  0
 34 36  1  0  0  0  0
 34 37  1  0  0  0  0
 34 39  1  0  0  0  0
 38 39  1  0  0  0  0
 38 42  1  0  0  0  0
 38 43  1  0  0  0  0
 38 44  1  0  0  0  0
 39 40  2  0  0  0  0
 39 41  2  0  0  0  0
M  END
$$$$
p38_goldstein_29_2cc_3fls
  MOE2024           3D
p38_goldstein_29_2cc_3fls
 47 49  0  0  1  0  0  0  0  0999 V2000
   37.4130   24.8900   40.0170 C   0  0  3  0  0  0  0  0  0  0  0  0
   37.1672   25.8742   40.4158 H   0  0  0  0  0  0  0  0  0  0  0  0
   38.8110   24.8900   39.4080 C   0  0  0  0  0  0  0  0  0  0  0  0
   39.0364   23.8983   39.0158 H   0  0  0  0  0  0  0  0  0  0  0  0
   39.5409   25.1524   40.1738 H   0  0  0  0  0  0  0  0  0  0  0  0
   38.8549   25.6193   38.5991 H   0  0  0  0  0  0  0  0  0  0  0  0
   37.3920   23.8630   41.1450 C   0  0  0  0  0  0  0  0  0  0  0  0
   38.2701   24.0276   41.7695 H   0  0  0  0  0  0  0  0  0  0  0  0
   37.4440   22.8695   40.6997 H   0  0  0  0  0  0  0  0  0  0  0  0
   36.0440   23.9230   42.1210 S   0  0  0  0  0  0  0  0  0  0  0  0
   34.8660   22.8960   41.5470 C   0  0  0  0  0  0  0  0  0  0  0  0
   35.2769   21.8913   41.4474 H   0  0  0  0  0  0  0  0  0  0  0  0
   34.5217   23.2459   40.5738 H   0  0  0  0  0  0  0  0  0  0  0  0
   34.0282   22.8784   42.2440 H   0  0  0  0  0  0  0  0  0  0  0  0
   35.8210   29.1750   38.1360 N   0  0  0  0  0  0  0  0  0  0  0  0
   35.2650   30.1980   37.3570 C   0  0  0  0  0  0  0  0  0  0  0  0
   34.4820   29.9140   36.2410 C   0  0  0  0  0  0  0  0  0  0  0  0
   34.2400   28.6150   35.8840 C   0  0  0  0  0  0  0  0  0  0  0  0
   33.6368   28.3963   35.0152 H   0  0  0  0  0  0  0  0  0  0  0  0
   35.5740   27.8320   37.7850 C   0  0  0  0  0  0  0  0  0  0  0  0
   34.7940   27.5340   36.6730 C   0  0  0  0  0  0  0  0  0  0  0  0
   34.5690   26.1940   36.3610 C   0  0  0  0  0  0  0  0  0  0  0  0
   33.9707   25.9322   35.5009 H   0  0  0  0  0  0  0  0  0  0  0  0
   35.0990   25.2260   37.1340 N   0  0  0  0  0  0  0  0  0  0  0  0
   35.8680   25.5380   38.2160 C   0  0  0  0  0  0  0  0  0  0  0  0
   36.0950   26.8300   38.5350 N   0  0  0  0  0  0  0  0  0  0  0  0
   35.4950   31.3820   37.6770 O   0  0  0  0  0  0  0  0  0  0  0  0
   36.4200   24.5770   38.9970 N   0  0  0  0  0  0  0  0  0  0  0  0
   36.1349   23.6166   38.8683 H   0  0  0  0  0  0  0  0  0  0  0  0
   33.9760   30.9910   35.5440 O   0  0  0  0  0  0  0  0  0  0  0  0
   33.0850   30.9250   34.5100 C   0  0  0  0  0  0  0  0  0  0  0  0
   36.6490   29.5070   39.3060 C   0  0  0  0  0  0  0  0  0  0  0  0
   36.7187   30.5901   39.4062 H   0  0  0  0  0  0  0  0  0  0  0  0
   37.6472   29.0892   39.1750 H   0  0  0  0  0  0  0  0  0  0  0  0
   36.1945   29.0876   40.2036 H   0  0  0  0  0  0  0  0  0  0  0  0
   33.5040   31.3480   33.2500 C   0  0  0  0  0  0  0  0  0  0  0  0
   34.5062   31.7232   33.1044 H   0  0  0  0  0  0  0  0  0  0  0  0
   32.6180   31.2810   32.1860 C   0  0  0  0  0  0  0  0  0  0  0  0
   32.9379   31.5880   31.2012 H   0  0  0  0  0  0  0  0  0  0  0  0
   31.3170   30.8200   32.3790 C   0  0  0  0  0  0  0  0  0  0  0  0
   30.8850   30.4030   33.6450 C   0  0  0  0  0  0  0  0  0  0  0  0
   29.8781   30.0417   33.7933 H   0  0  0  0  0  0  0  0  0  0  0  0
   31.7870   30.4650   34.7130 C   0  0  0  0  0  0  0  0  0  0  0  0
   36.4780   23.4870   43.4220 O   0  0  0  0  0  0  0  0  0  0  0  0
   35.4850   25.2420   42.2460 O   0  0  0  0  0  0  0  0  0  0  0  0
   31.4260   30.0840   35.9480 F   0  0  0  0  0  0  0  0  0  0  0  0
   30.5030   30.7770   31.3210 F   0  0  0  0  0  0  0  0  0  0  0  0
  1  2  1  0  0  0  0
  1  3  1  0  0  0  0
  1  7  1  0  0  0  0
  1 28  1  0  0  0  0
  3  4  1  0  0  0  0
  3  5  1  0  0  0  0
  3  6  1  0  0  0  0
  7  8  1  0  0  0  0
  7  9  1  0  0  0  0
  7 10  1  0  0  0  0
 10 11  1  0  0  0  0
 10 44  2  0  0  0  0
 10 45  2  0  0  0  0
 11 12  1  0  0  0  0
 11 13  1  0  0  0  0
 11 14  1  0  0  0  0
 15 16  1  0  0  0  0
 15 20  1  0  0  0  0
 15 32  1  0  0  0  0
 16 17  1  0  0  0  0
 16 27  2  0  0  0  0
 17 18  2  0  0  0  0
 17 30  1  0  0  0  0
 18 19  1  0  0  0  0
 18 21  1  0  0  0  0
 20 21  1  0  0  0  0
 20 26  2  0  0  0  0
 21 22  2  0  0  0  0
 22 23  1  0  0  0  0
 22 24  1  0  0  0  0
 24 25  2  0  0  0  0
 25 26  1  0  0  0  0
 25 28  1  0  0  0  0
 28 29  1  0  0  0  0
 30 31  1  0  0  0  0
 31 36  1  0  0  0  0
 31 43  2  0  0  0  0
 32 33  1  0  0  0  0
 32 34  1  0  0  0  0
 32 35  1  0  0  0  0
 36 37  1  0  0  0  0
 36 38  2  0  0  0  0
 38 39  1  0  0  0  0
 38 40  1  0  0  0  0
 40 41  2  0  0  0  0
 40 47  1  0  0  0  0
 41 42  1  0  0  0  0
 41 43  1  0  0  0  0
 43 46  1  0  0  0  0
M  END
$$$$
p38_goldstein_30_2dd_3flq
  MOE2024           3D
p38_goldstein_30_2dd_3flq
 47 49  0  0  1  0  0  0  0  0999 V2000
   35.9160   24.8190   40.8250 C   0  0  3  0  0  0  0  0  0  0  0  0
   35.8909   25.8507   41.1759 H   0  0  0  0  0  0  0  0  0  0  0  0
   35.4360   23.9330   41.9690 C   0  0  0  0  0  0  0  0  0  0  0  0
   35.4486   22.8905   41.6510 H   0  0  0  0  0  0  0  0  0  0  0  0
   34.4206   24.2160   42.2463 H   0  0  0  0  0  0  0  0  0  0  0  0
   36.0956   24.0590   42.8276 H   0  0  0  0  0  0  0  0  0  0  0  0
   37.3320   24.4200   40.4000 C   0  0  0  0  0  0  0  0  0  0  0  0
   37.2691   23.5611   39.7318 H   0  0  0  0  0  0  0  0  0  0  0  0
   37.9018   24.1481   41.2885 H   0  0  0  0  0  0  0  0  0  0  0  0
   38.1250   25.6580   39.6110 S   0  0  0  0  0  0  0  0  0  0  0  0
   38.0870   27.0540   40.5210 C   0  0  0  0  0  0  0  0  0  0  0  0
   38.5353   26.8643   41.4963 H   0  0  0  0  0  0  0  0  0  0  0  0
   37.0534   27.3741   40.6523 H   0  0  0  0  0  0  0  0  0  0  0  0
   38.6475   27.8365   40.0095 H   0  0  0  0  0  0  0  0  0  0  0  0
   39.4850   25.2460   39.3900 O   0  0  0  0  0  0  0  0  0  0  0  0
   37.5350   25.9000   38.3220 O   0  0  0  0  0  0  0  0  0  0  0  0
   34.5050   29.3140   39.1400 N   0  0  0  0  0  0  0  0  0  0  0  0
   34.1510   30.4190   38.3200 C   0  0  0  0  0  0  0  0  0  0  0  0
   33.7380   30.2010   37.0130 C   0  0  0  0  0  0  0  0  0  0  0  0
   33.6810   28.8970   36.4980 C   0  0  0  0  0  0  0  0  0  0  0  0
   33.3676   28.7400   35.4765 H   0  0  0  0  0  0  0  0  0  0  0  0
   34.4370   28.0060   38.6040 C   0  0  0  0  0  0  0  0  0  0  0  0
   34.0240   27.8020   37.2890 C   0  0  0  0  0  0  0  0  0  0  0  0
   33.9710   26.5020   36.7830 C   0  0  0  0  0  0  0  0  0  0  0  0
   33.6614   26.3273   35.7632 H   0  0  0  0  0  0  0  0  0  0  0  0
   34.3080   25.4700   37.5740 N   0  0  0  0  0  0  0  0  0  0  0  0
   34.7040   25.6840   38.8570 C   0  0  0  0  0  0  0  0  0  0  0  0
   34.7660   26.9400   39.3600 N   0  0  0  0  0  0  0  0  0  0  0  0
   34.1980   31.5920   38.7570 O   0  0  0  0  0  0  0  0  0  0  0  0
   35.0570   24.6400   39.6520 N   0  0  0  0  0  0  0  0  0  0  0  0
   34.7178   23.7154   39.4280 H   0  0  0  0  0  0  0  0  0  0  0  0
   33.3980   31.2940   36.2490 O   0  0  0  0  0  0  0  0  0  0  0  0
   32.6560   31.2000   35.0950 C   0  0  0  0  0  0  0  0  0  0  0  0
   34.9400   29.5200   40.5300 C   0  0  0  0  0  0  0  0  0  0  0  0
   34.9283   30.5853   40.7602 H   0  0  0  0  0  0  0  0  0  0  0  0
   35.9509   29.1322   40.6556 H   0  0  0  0  0  0  0  0  0  0  0  0
   34.2631   28.9951   41.2041 H   0  0  0  0  0  0  0  0  0  0  0  0
   33.2040   31.6270   33.8910 C   0  0  0  0  0  0  0  0  0  0  0  0
   34.2073   32.0259   33.8641 H   0  0  0  0  0  0  0  0  0  0  0  0
   32.4550   31.5390   32.7180 C   0  0  0  0  0  0  0  0  0  0  0  0
   32.8772   31.8668   31.7796 H   0  0  0  0  0  0  0  0  0  0  0  0
   31.1610   31.0270   32.7610 C   0  0  0  0  0  0  0  0  0  0  0  0
   30.6130   30.6050   33.9630 C   0  0  0  0  0  0  0  0  0  0  0  0
   29.6084   30.2096   33.9917 H   0  0  0  0  0  0  0  0  0  0  0  0
   31.3620   30.6930   35.1310 C   0  0  0  0  0  0  0  0  0  0  0  0
   30.8330   30.2800   36.2960 F   0  0  0  0  0  0  0  0  0  0  0  0
   30.4360   30.9350   31.6410 F   0  0  0  0  0  0  0  0  0  0  0  0
  1  2  1  0  0  0  0
  1  3  1  0  0  0  0
  1  7  1  0  0  0  0
  1 30  1  0  0  0  0
  3  4  1  0  0  0  0
  3  5  1  0  0  0  0
  3  6  1  0  0  0  0
  7  8  1  0  0  0  0
  7  9  1  0  0  0  0
  7 10  1  0  0  0  0
 10 11  1  0  0  0  0
 10 15  2  0  0  0  0
 10 16  2  0  0  0  0
 11 12  1  0  0  0  0
 11 13  1  0  0  0  0
 11 14  1  0  0  0  0
 17 18  1  0  0  0  0
 17 22  1  0  0  0  0
 17 34  1  0  0  0  0
 18 19  1  0  0  0  0
 18 29  2  0  0  0  0
 19 20  2  0  0  0  0
 19 32  1  0  0  0  0
 20 21  1  0  0  0  0
 20 23  1  0  0  0  0
 22 23  1  0  0  0  0
 22 28  2  0  0  0  0
 23 24  2  0  0  0  0
 24 25  1  0  0  0  0
 24 26  1  0  0  0  0
 26 27  2  0  0  0  0
 27 28  1  0  0  0  0
 27 30  1  0  0  0  0
 30 31  1  0  0  0  0
 32 33  1  0  0  0  0
 33 38  1  0  0  0  0
 33 45  2  0  0  0  0
 34 35  1  0  0  0  0
 34 36  1  0  0  0  0
 34 37  1  0  0  0  0
 38 39  1  0  0  0  0
 38 40  2  0  0  0  0
 40 41  1  0  0  0  0
 40 42  1  0  0  0  0
 42 43  2  0  0  0  0
 42 47  1  0  0  0  0
 43 44  1  0  0  0  0
 43 45  1  0  0  0  0
 45 46  1  0  0  0  0
M  END
$$$$
p38_goldstein_31_2ee.C
  MOE2024           3D
p38_goldstein_31_2ee
 52 55  0  0  0  0  0  0  0  0999 V2000
   38.0739   24.9819   39.4783 C   0  0  0  0  0  0  0  0  0  0  0  0
   38.4749   24.1849   38.8381 H   0  0  0  0  0  0  0  0  0  0  0  0
   38.2705   25.9291   38.9629 H   0  0  0  0  0  0  0  0  0  0  0  0
   38.8037   24.9727   40.8170 C   0  0  0  0  0  0  0  0  0  0  0  0
   38.4883   25.8241   41.4320 H   0  0  0  0  0  0  0  0  0  0  0  0
   39.8802   25.0745   40.6485 H   0  0  0  0  0  0  0  0  0  0  0  0
   37.0721   23.5159   41.8027 C   0  0  0  0  0  0  0  0  0  0  0  0
   36.8979   22.5808   42.3380 H   0  0  0  0  0  0  0  0  0  0  0  0
   36.7091   24.3282   42.4436 H   0  0  0  0  0  0  0  0  0  0  0  0
   36.3056   23.4951   40.4842 C   0  0  0  0  0  0  0  0  0  0  0  0
   35.2324   23.3844   40.6807 H   0  0  0  0  0  0  0  0  0  0  0  0
   36.6127   22.6175   39.8995 H   0  0  0  0  0  0  0  0  0  0  0  0
   30.8114   31.4093   34.1489 C   0  0  0  0  0  0  0  0  0  0  0  0
   29.8529   31.2284   34.6217 H   0  0  0  0  0  0  0  0  0  0  0  0
   38.4961   23.7554   41.5637 N   0  0  0  0  0  0  0  0  0  0  0  0
   39.5351   22.9355   41.9890 C   0  0  0  0  0  0  0  0  0  0  0  0
   39.1586   21.6909   42.7522 C   0  0  0  0  0  0  0  0  0  0  0  0
   38.5457   21.0365   42.1267 H   0  0  0  0  0  0  0  0  0  0  0  0
   38.6243   21.9565   43.6681 H   0  0  0  0  0  0  0  0  0  0  0  0
   40.0657   21.1461   43.0314 H   0  0  0  0  0  0  0  0  0  0  0  0
   35.3776   30.4862   37.0034 C   0  0  0  0  0  0  0  0  0  0  0  0
   31.9937   31.2551   34.8649 C   0  0  0  0  0  0  0  0  0  0  0  0
   35.5391   25.7636   37.6500 C   0  0  0  0  0  0  0  0  0  0  0  0
   36.5665   24.7767   39.6786 C   0  0  0  0  0  0  0  0  0  0  0  0
   36.1545   25.6173   40.2535 H   0  0  0  0  0  0  0  0  0  0  0  0
   34.8203   27.8711   36.0842 C   0  0  0  0  0  0  0  0  0  0  0  0
   34.4578   29.0071   35.2534 C   0  0  0  0  0  0  0  0  0  0  0  0
   34.0103   28.8155   34.2840 H   0  0  0  0  0  0  0  0  0  0  0  0
   30.8774   31.8082   32.8196 C   0  0  0  0  0  0  0  0  0  0  0  0
   32.1008   32.0591   32.2026 C   0  0  0  0  0  0  0  0  0  0  0  0
   32.1257   32.3763   31.1647 H   0  0  0  0  0  0  0  0  0  0  0  0
   33.2838   31.9077   32.9270 C   0  0  0  0  0  0  0  0  0  0  0  0
   34.2411   32.1154   32.4557 H   0  0  0  0  0  0  0  0  0  0  0  0
   35.4333   28.0424   37.3096 C   0  0  0  0  0  0  0  0  0  0  0  0
   34.5968   26.5633   35.7175 C   0  0  0  0  0  0  0  0  0  0  0  0
   34.1213   26.3064   34.7753 H   0  0  0  0  0  0  0  0  0  0  0  0
   34.6930   30.2582   35.6826 C   0  0  0  0  0  0  0  0  0  0  0  0
   33.2316   31.4862   34.2576 C   0  0  0  0  0  0  0  0  0  0  0  0
   36.3560   29.5123   39.0466 C   0  0  0  0  0  0  0  0  0  0  0  0
   36.5082   30.5649   39.3009 H   0  0  0  0  0  0  0  0  0  0  0  0
   37.3342   29.0214   39.0191 H   0  0  0  0  0  0  0  0  0  0  0  0
   35.7309   29.0595   39.8230 H   0  0  0  0  0  0  0  0  0  0  0  0
   31.9235   30.8897   36.1531 F   0  0  0  0  0  0  0  0  0  0  0  0
   29.7447   31.9622   32.1211 F   0  0  0  0  0  0  0  0  0  0  0  0
   34.4260   31.3968   34.9312 O   0  0  0  0  0  0  0  0  0  0  0  0
   34.9439   25.5047   36.4758 N   0  0  0  0  0  0  0  0  0  0  0  0
   35.6172   31.6393   37.3636 O   0  0  0  0  0  0  0  0  0  0  0  0
   35.7051   29.3634   37.7537 N   0  0  0  0  0  0  0  0  0  0  0  0
   35.7915   27.0047   38.0949 N   0  0  0  0  0  0  0  0  0  0  0  0
   35.9006   24.6719   38.3973 N   0  0  0  0  0  0  0  0  0  0  0  0
   35.6814   23.7790   37.9799 H   0  0  0  0  0  0  0  0  0  0  0  0
   40.7230   23.1783   41.7690 O   0  0  0  0  0  0  0  0  0  0  0  0
  1  2  1  0  0  0  0
  1  3  1  0  0  0  0
  1  4  1  0  0  0  0
  1 24  1  0  0  0  0
  4  5  1  0  0  0  0
  4  6  1  0  0  0  0
  4 15  1  0  0  0  0
  7  8  1  0  0  0  0
  7  9  1  0  0  0  0
  7 10  1  0  0  0  0
  7 15  1  0  0  0  0
 10 11  1  0  0  0  0
 10 12  1  0  0  0  0
 10 24  1  0  0  0  0
 13 14  1  0  0  0  0
 13 22  1  0  0  0  0
 13 29  2  0  0  0  0
 15 16  1  0  0  0  0
 16 17  1  0  0  0  0
 16 52  2  0  0  0  0
 17 18  1  0  0  0  0
 17 19  1  0  0  0  0
 17 20  1  0  0  0  0
 21 37  1  0  0  0  0
 21 47  2  0  0  0  0
 21 48  1  0  0  0  0
 22 38  2  0  0  0  0
 22 43  1  0  0  0  0
 23 46  2  0  0  0  0
 23 49  1  0  0  0  0
 23 50  1  0  0  0  0
 24 25  1  0  0  0  0
 24 50  1  0  0  0  0
 26 27  1  0  0  0  0
 26 34  1  0  0  0  0
 26 35  2  0  0  0  0
 27 28  1  0  0  0  0
 27 37  2  0  0  0  0
 29 30  1  0  0  0  0
 29 44  1  0  0  0  0
 30 31  1  0  0  0  0
 30 32  2  0  0  0  0
 32 33  1  0  0  0  0
 32 38  1  0  0  0  0
 34 48  1  0  0  0  0
 34 49  2  0  0  0  0
 35 36  1  0  0  0  0
 35 46  1  0  0  0  0
 37 45  1  0  0  0  0
 38 45  1  0  0  0  0
 39 40  1  0  0  0  0
 39 41  1  0  0  0  0
 39 42  1  0  0  0  0
 39 48  1  0  0  0  0
 50 51  1  0  0  0  0
M  END
$$$$
p38_goldstein_32_2ff.C
  MOE2024           3D
p38_goldstein_32_2ff
 49 52  0  0  0  0  0  0  0  0999 V2000
   38.3039   25.0828   39.7895 C   0  0  0  0  0  0  0  0  0  0  0  0
   38.6866   24.2292   39.2145 H   0  0  0  0  0  0  0  0  0  0  0  0
   38.4392   25.9673   39.1556 H   0  0  0  0  0  0  0  0  0  0  0  0
   39.1332   25.2476   41.0612 C   0  0  0  0  0  0  0  0  0  0  0  0
   38.8494   26.1812   41.5623 H   0  0  0  0  0  0  0  0  0  0  0  0
   40.1940   25.3352   40.8004 H   0  0  0  0  0  0  0  0  0  0  0  0
   37.4609   23.8492   42.3341 C   0  0  0  0  0  0  0  0  0  0  0  0
   37.3515   22.9585   42.9631 H   0  0  0  0  0  0  0  0  0  0  0  0
   37.0752   24.6981   42.9119 H   0  0  0  0  0  0  0  0  0  0  0  0
   36.6345   23.6833   41.0613 C   0  0  0  0  0  0  0  0  0  0  0  0
   35.5750   23.5750   41.3245 H   0  0  0  0  0  0  0  0  0  0  0  0
   36.9265   22.7508   40.5602 H   0  0  0  0  0  0  0  0  0  0  0  0
   30.8350   30.5460   33.6160 C   0  0  0  0  0  0  0  0  0  0  0  0
   29.8290   30.2165   33.8301 H   0  0  0  0  0  0  0  0  0  0  0  0
   38.9362   24.0765   42.0190 C   0  0  0  0  0  0  0  0  0  0  0  0
   39.6498   24.3168   43.2206 O   0  0  0  0  0  0  0  0  0  0  0  0
   40.5710   24.4553   42.9884 H   0  0  0  0  0  0  0  0  0  0  0  0
   39.3577   23.1669   41.5734 H   0  0  0  0  0  0  0  0  0  0  0  0
   35.2410   30.3490   37.3210 C   0  0  0  0  0  0  0  0  0  0  0  0
   31.7830   30.6110   34.6350 C   0  0  0  0  0  0  0  0  0  0  0  0
   35.6140   25.6240   38.0940 C   0  0  0  0  0  0  0  0  0  0  0  0
   36.8172   24.8747   40.1079 C   0  0  0  0  0  0  0  0  0  0  0  0
   36.4229   25.7627   40.6203 H   0  0  0  0  0  0  0  0  0  0  0  0
   34.7100   27.6810   36.5310 C   0  0  0  0  0  0  0  0  0  0  0  0
   34.2440   28.7240   35.7240 C   0  0  0  0  0  0  0  0  0  0  0  0
   33.6969   28.4999   34.8202 H   0  0  0  0  0  0  0  0  0  0  0  0
   31.1930   30.9090   32.3180 C   0  0  0  0  0  0  0  0  0  0  0  0
   32.4860   31.3350   32.0370 C   0  0  0  0  0  0  0  0  0  0  0  0
   32.7594   31.6084   31.0286 H   0  0  0  0  0  0  0  0  0  0  0  0
   33.4280   31.4080   33.0610 C   0  0  0  0  0  0  0  0  0  0  0  0
   34.4299   31.7510   32.8488 H   0  0  0  0  0  0  0  0  0  0  0  0
   35.4200   27.9480   37.7070 C   0  0  0  0  0  0  0  0  0  0  0  0
   34.4800   26.3490   36.1740 C   0  0  0  0  0  0  0  0  0  0  0  0
   33.9374   26.1220   35.2682 H   0  0  0  0  0  0  0  0  0  0  0  0
   34.4820   30.0550   36.0800 C   0  0  0  0  0  0  0  0  0  0  0  0
   33.0800   31.0400   34.3550 C   0  0  0  0  0  0  0  0  0  0  0  0
   36.4500   29.5370   39.3560 C   0  0  0  0  0  0  0  0  0  0  0  0
   36.5574   30.6127   39.4951 H   0  0  0  0  0  0  0  0  0  0  0  0
   37.4368   29.0795   39.2848 H   0  0  0  0  0  0  0  0  0  0  0  0
   35.9132   29.1127   40.2045 H   0  0  0  0  0  0  0  0  0  0  0  0
   31.4320   30.2560   35.8800 F   0  0  0  0  0  0  0  0  0  0  0  0
   30.2920   30.8400   31.3240 F   0  0  0  0  0  0  0  0  0  0  0  0
   34.0420   31.1260   35.3340 O   0  0  0  0  0  0  0  0  0  0  0  0
   34.9300   25.3500   36.9510 N   0  0  0  0  0  0  0  0  0  0  0  0
   35.4550   31.5390   37.6440 O   0  0  0  0  0  0  0  0  0  0  0  0
   35.6970   29.2750   38.1180 N   0  0  0  0  0  0  0  0  0  0  0  0
   35.8510   26.9090   38.4580 N   0  0  0  0  0  0  0  0  0  0  0  0
   36.0750   24.6170   38.8850 N   0  0  0  0  0  0  0  0  0  0  0  0
   35.9079   23.6571   38.6189 H   0  0  0  0  0  0  0  0  0  0  0  0
  1  2  1  0  0  0  0
  1  3  1  0  0  0  0
  1  4  1  0  0  0  0
  1 22  1  0  0  0  0
  4  5  1  0  0  0  0
  4  6  1  0  0  0  0
  4 15  1  0  0  0  0
  7  8  1  0  0  0  0
  7  9  1  0  0  0  0
  7 10  1  0  0  0  0
  7 15  1  0  0  0  0
 10 11  1  0  0  0  0
 10 12  1  0  0  0  0
 10 22  1  0  0  0  0
 13 14  1  0  0  0  0
 13 20  1  0  0  0  0
 13 27  2  0  0  0  0
 15 16  1  0  0  0  0
 15 18  1  0  0  0  0
 16 17  1  0  0  0  0
 19 35  1  0  0  0  0
 19 45  2  0  0  0  0
 19 46  1  0  0  0  0
 20 36  2  0  0  0  0
 20 41  1  0  0  0  0
 21 44  2  0  0  0  0
 21 47  1  0  0  0  0
 21 48  1  0  0  0  0
 22 23  1  0  0  0  0
 22 48  1  0  0  0  0
 24 25  1  0  0  0  0
 24 32  1  0  0  0  0
 24 33  2  0  0  0  0
 25 26  1  0  0  0  0
 25 35  2  0  0  0  0
 27 28  1  0  0  0  0
 27 42  1  0  0  0  0
 28 29  1  0  0  0  0
 28 30  2  0  0  0  0
 30 31  1  0  0  0  0
 30 36  1  0  0  0  0
 32 46  1  0  0  0  0
 32 47  2  0  0  0  0
 33 34  1  0  0  0  0
 33 44  1  0  0  0  0
 35 43  1  0  0  0  0
 36 43  1  0  0  0  0
 37 38  1  0  0  0  0
 37 39  1  0  0  0  0
 37 40  1  0  0  0  0
 37 46  1  0  0  0  0
 48 49  1  0  0  0  0
M  END
$$$$
p38_goldstein_33_2gg
  MOE2024           3D
p38_goldstein_33_2gg
 48 51  0  0  0  0  0  0  0  0999 V2000
   34.9189   26.4219   35.9781 C   0  0  0  0  0  0  0  0  0  0  0  0
   34.3863   26.0802   35.0948 H   0  0  0  0  0  0  0  0  0  0  0  0
   35.8047   28.0434   37.3965 C   0  0  0  0  0  0  0  0  0  0  0  0
   35.3671   25.4367   36.7782 N   0  0  0  0  0  0  0  0  0  0  0  0
   35.1110   27.7592   36.2363 C   0  0  0  0  0  0  0  0  0  0  0  0
   34.6331   28.8124   35.3570 C   0  0  0  0  0  0  0  0  0  0  0  0
   34.1241   28.5259   34.4429 H   0  0  0  0  0  0  0  0  0  0  0  0
   34.8334   30.1025   35.6732 C   0  0  0  0  0  0  0  0  0  0  0  0
   35.6062   30.4592   36.9133 C   0  0  0  0  0  0  0  0  0  0  0  0
   36.0343   25.7980   37.8856 C   0  0  0  0  0  0  0  0  0  0  0  0
   33.2218   31.1275   34.2488 C   0  0  0  0  0  0  0  0  0  0  0  0
   33.1876   31.4287   32.8852 C   0  0  0  0  0  0  0  0  0  0  0  0
   34.1076   31.6498   32.3503 H   0  0  0  0  0  0  0  0  0  0  0  0
   31.9664   31.4408   32.2102 C   0  0  0  0  0  0  0  0  0  0  0  0
   31.9246   31.6628   31.1483 H   0  0  0  0  0  0  0  0  0  0  0  0
   30.7906   31.1734   32.9075 C   0  0  0  0  0  0  0  0  0  0  0  0
   30.8101   30.8935   34.2687 C   0  0  0  0  0  0  0  0  0  0  0  0
   29.8873   30.6976   34.8028 H   0  0  0  0  0  0  0  0  0  0  0  0
   32.0303   30.8780   34.9358 C   0  0  0  0  0  0  0  0  0  0  0  0
   29.6204   31.1934   32.2556 F   0  0  0  0  0  0  0  0  0  0  0  0
   32.0425   30.6257   36.2528 F   0  0  0  0  0  0  0  0  0  0  0  0
   34.4473   31.1692   34.8691 O   0  0  0  0  0  0  0  0  0  0  0  0
   35.8189   31.6444   37.1707 O   0  0  0  0  0  0  0  0  0  0  0  0
   36.0454   29.4092   37.7154 N   0  0  0  0  0  0  0  0  0  0  0  0
   36.7869   29.6839   38.9371 C   0  0  0  0  0  0  0  0  0  0  0  0
   36.2447   29.2694   39.7932 H   0  0  0  0  0  0  0  0  0  0  0  0
   36.9112   30.7584   39.0988 H   0  0  0  0  0  0  0  0  0  0  0  0
   37.7811   29.2303   38.8676 H   0  0  0  0  0  0  0  0  0  0  0  0
   36.2662   27.0768   38.2267 N   0  0  0  0  0  0  0  0  0  0  0  0
   36.4762   24.7571   38.6591 N   0  0  0  0  0  0  0  0  0  0  0  0
   36.2319   23.8476   38.2900 H   0  0  0  0  0  0  0  0  0  0  0  0
   38.1492   23.5068   42.6159 S   0  0  0  0  0  0  0  0  0  0  0  0
   39.1505   23.8157   41.1783 C   0  0  0  0  0  0  0  0  0  0  0  0
   39.9143   23.0330   41.1428 H   0  0  0  0  0  0  0  0  0  0  0  0
   39.6482   24.7798   41.3238 H   0  0  0  0  0  0  0  0  0  0  0  0
   38.3179   23.8154   39.9048 C   0  0  0  0  0  0  0  0  0  0  0  0
   37.8752   22.8211   39.7580 H   0  0  0  0  0  0  0  0  0  0  0  0
   38.9834   23.9831   39.0483 H   0  0  0  0  0  0  0  0  0  0  0  0
   37.2068   24.8839   39.9014 C   0  0  0  0  0  0  0  0  0  0  0  0
   37.6842   25.8689   39.9817 H   0  0  0  0  0  0  0  0  0  0  0  0
   36.2244   24.6943   41.0698 C   0  0  0  0  0  0  0  0  0  0  0  0
   35.7039   23.7334   40.9615 H   0  0  0  0  0  0  0  0  0  0  0  0
   35.4489   25.4693   41.0226 H   0  0  0  0  0  0  0  0  0  0  0  0
   36.8944   24.7572   42.4352 C   0  0  0  0  0  0  0  0  0  0  0  0
   36.1631   24.5973   43.2334 H   0  0  0  0  0  0  0  0  0  0  0  0
   37.3735   25.7286   42.5938 H   0  0  0  0  0  0  0  0  0  0  0  0
   37.5260   22.2063   42.4680 O   0  0  0  0  0  0  0  0  0  0  0  0
   38.9384   23.8286   43.7883 O   0  0  0  0  0  0  0  0  0  0  0  0
  1  2  1  0  0  0  0
  1  4  1  0  0  0  0
  1  5  2  0  0  0  0
  3  5  1  0  0  0  0
  3 24  1  0  0  0  0
  3 29  2  0  0  0  0
  4 10  2  0  0  0  0
  5  6  1  0  0  0  0
  6  7  1  0  0  0  0
  6  8  2  0  0  0  0
  8  9  1  0  0  0  0
  8 22  1  0  0  0  0
  9 23  2  0  0  0  0
  9 24  1  0  0  0  0
 10 29  1  0  0  0  0
 10 30  1  0  0  0  0
 11 12  1  0  0  0  0
 11 19  2  0  0  0  0
 11 22  1  0  0  0  0
 12 13  1  0  0  0  0
 12 14  2  0  0  0  0
 14 15  1  0  0  0  0
 14 16  1  0  0  0  0
 16 17  2  0  0  0  0
 16 20  1  0  0  0  0
 17 18  1  0  0  0  0
 17 19  1  0  0  0  0
 19 21  1  0  0  0  0
 24 25  1  0  0  0  0
 25 26  1  0  0  0  0
 25 27  1  0  0  0  0
 25 28  1  0  0  0  0
 30 31  1  0  0  0  0
 30 39  1  0  0  0  0
 32 33  1  0  0  0  0
 32 44  1  0  0  0  0
 32 47  2  0  0  0  0
 32 48  2  0  0  0  0
 33 34  1  0  0  0  0
 33 35  1  0  0  0  0
 33 36  1  0  0  0  0
 36 37  1  0  0  0  0
 36 38  1  0  0  0  0
 36 39  1  0  0  0  0
 39 40  1  0  0  0  0
 39 41  1  0  0  0  0
 41 42  1  0  0  0  0
 41 43  1  0  0  0  0
 41 44  1  0  0  0  0
 44 45  1  0  0  0  0
 44 46  1  0  0  0  0
M  END
$$$$
p38_goldstein_34_2hh_3fmk
  MOE2024           3D
p38_goldstein_34_2hh_3fmk
 46 49  0  0  1  0  0  0  0  0999 V2000
   35.4980   24.5040   39.1240 N   0  0  0  0  0  0  0  0  0  0  0  0
   34.6653   23.9442   39.2394 H   0  0  0  0  0  0  0  0  0  0  0  0
   36.0100   24.7650   40.4660 C   0  0  3  0  0  0  0  0  0  0  0  0
   35.7689   25.7712   40.8087 H   0  0  0  0  0  0  0  0  0  0  0  0
   37.5210   24.5640   40.3860 C   0  0  0  0  0  0  0  0  0  0  0  0
   37.7290   23.5796   39.9668 H   0  0  0  0  0  0  0  0  0  0  0  0
   37.9439   24.6287   41.3886 H   0  0  0  0  0  0  0  0  0  0  0  0
   35.1650   25.5210   38.2860 C   0  0  0  0  0  0  0  0  0  0  0  0
   35.3890   26.7980   38.6740 N   0  0  0  0  0  0  0  0  0  0  0  0
   34.2990   26.2610   36.2360 C   0  0  0  0  0  0  0  0  0  0  0  0
   33.8706   26.0428   35.2689 H   0  0  0  0  0  0  0  0  0  0  0  0
   34.6250   25.2550   37.0700 N   0  0  0  0  0  0  0  0  0  0  0  0
   34.5140   27.5830   36.6200 C   0  0  0  0  0  0  0  0  0  0  0  0
   35.0740   27.8360   37.8710 C   0  0  0  0  0  0  0  0  0  0  0  0
   35.3090   29.1650   38.2900 N   0  0  0  0  0  0  0  0  0  0  0  0
   34.9680   30.2290   37.4280 C   0  0  0  0  0  0  0  0  0  0  0  0
   34.4040   29.9710   36.1870 C   0  0  0  0  0  0  0  0  0  0  0  0
   34.1820   28.6490   35.7790 C   0  0  0  0  0  0  0  0  0  0  0  0
   33.7515   28.4524   34.8082 H   0  0  0  0  0  0  0  0  0  0  0  0
   35.1730   31.4110   37.7800 O   0  0  0  0  0  0  0  0  0  0  0  0
   34.0840   31.0420   35.3890 O   0  0  0  0  0  0  0  0  0  0  0  0
   33.1290   30.9830   34.4020 C   0  0  0  0  0  0  0  0  0  0  0  0
   33.4990   31.3590   33.1150 C   0  0  0  0  0  0  0  0  0  0  0  0
   34.5095   31.6859   32.9189 H   0  0  0  0  0  0  0  0  0  0  0  0
   32.5700   31.3150   32.0790 C   0  0  0  0  0  0  0  0  0  0  0  0
   32.8594   31.6043   31.0795 H   0  0  0  0  0  0  0  0  0  0  0  0
   31.2670   30.8970   32.3350 C   0  0  0  0  0  0  0  0  0  0  0  0
   30.8890   30.5220   33.6230 C   0  0  0  0  0  0  0  0  0  0  0  0
   29.8772   30.1982   33.8177 H   0  0  0  0  0  0  0  0  0  0  0  0
   31.8210   30.5660   34.6600 C   0  0  0  0  0  0  0  0  0  0  0  0
   35.9020   29.4480   39.6080 C   0  0  0  0  0  0  0  0  0  0  0  0
   36.0965   28.5099   40.1279 H   0  0  0  0  0  0  0  0  0  0  0  0
   35.2106   30.0523   40.1953 H   0  0  0  0  0  0  0  0  0  0  0  0
   36.8377   29.9913   39.4763 H   0  0  0  0  0  0  0  0  0  0  0  0
   38.1360   25.5860   39.5390 N   0  0  0  0  0  0  0  0  0  0  0  0
   38.4420   26.8630   39.9870 N   0  0  0  0  0  0  0  0  0  0  0  0
   38.9940   27.4530   38.8340 N   0  0  0  0  0  0  0  0  0  0  0  0
   38.9880   26.5570   37.8060 C   0  0  0  0  0  0  0  0  0  0  0  0
   39.3537   26.7626   36.8108 H   0  0  0  0  0  0  0  0  0  0  0  0
   38.4610   25.3740   38.2030 N   0  0  0  0  0  0  0  0  0  0  0  0
   35.3840   23.7870   41.4520 C   0  0  0  0  0  0  0  0  0  0  0  0
   35.6048   22.7660   41.1408 H   0  0  0  0  0  0  0  0  0  0  0  0
   34.3043   23.9346   41.4742 H   0  0  0  0  0  0  0  0  0  0  0  0
   35.7950   23.9606   42.4465 H   0  0  0  0  0  0  0  0  0  0  0  0
   31.4440   30.1990   35.8980 F   0  0  0  0  0  0  0  0  0  0  0  0
   30.3740   30.8520   31.3290 F   0  0  0  0  0  0  0  0  0  0  0  0
  1  2  1  0  0  0  0
  1  3  1  0  0  0  0
  1  8  1  0  0  0  0
  3  4  1  0  0  0  0
  3  5  1  0  0  0  0
  3 41  1  0  0  0  0
  5  6  1  0  0  0  0
  5  7  1  0  0  0  0
  5 35  1  0  0  0  0
  8  9  1  0  0  0  0
  8 12  2  0  0  0  0
  9 14  2  0  0  0  0
 10 11  1  0  0  0  0
 10 12  1  0  0  0  0
 10 13  2  0  0  0  0
 13 14  1  0  0  0  0
 13 18  1  0  0  0  0
 14 15  1  0  0  0  0
 15 16  1  0  0  0  0
 15 31  1  0  0  0  0
 16 17  1  0  0  0  0
 16 20  2  0  0  0  0
 17 18  2  0  0  0  0
 17 21  1  0  0  0  0
 18 19  1  0  0  0  0
 21 22  1  0  0  0  0
 22 23  1  0  0  0  0
 22 30  2  0  0  0  0
 23 24  1  0  0  0  0
 23 25  2  0  0  0  0
 25 26  1  0  0  0  0
 25 27  1  0  0  0  0
 27 28  2  0  0  0  0
 27 46  1  0  0  0  0
 28 29  1  0  0  0  0
 28 30  1  0  0  0  0
 30 45  1  0  0  0  0
 31 32  1  0  0  0  0
 31 33  1  0  0  0  0
 31 34  1  0  0  0  0
 35 36  1  0  0  0  0
 35 40  1  0  0  0  0
 36 37  2  0  0  0  0
 37 38  1  0  0  0  0
 38 39  1  0  0  0  0
 38 40  2  0  0  0  0
 41 42  1  0  0  0  0
 41 43  1  0  0  0  0
 41 44  1  0  0  0  0
M  END
$$$$
p38_goldstein_35_2ii_3fmh
  MOE2024           3D
p38_goldstein_35_2ii_3fmh
 46 49  0  0  1  0  0  0  0  0999 V2000
   36.7000   24.7470   38.6950 N   0  0  0  0  0  0  0  0  0  0  0  0
   36.4127   23.7827   38.6072 H   0  0  0  0  0  0  0  0  0  0  0  0
   37.7830   25.1290   39.6070 C   0  0  3  0  0  0  0  0  0  0  0  0
   38.1833   26.1016   39.3207 H   0  0  0  0  0  0  0  0  0  0  0  0
   37.2150   25.2270   41.0310 C   0  0  0  0  0  0  0  0  0  0  0  0
   36.6138   26.1337   41.0982 H   0  0  0  0  0  0  0  0  0  0  0  0
   38.0497   25.2919   41.7289 H   0  0  0  0  0  0  0  0  0  0  0  0
   36.0920   25.7250   37.9700 C   0  0  0  0  0  0  0  0  0  0  0  0
   36.3640   27.0020   38.3100 N   0  0  0  0  0  0  0  0  0  0  0  0
   34.6600   26.4650   36.2470 C   0  0  0  0  0  0  0  0  0  0  0  0
   33.9866   26.2400   35.4332 H   0  0  0  0  0  0  0  0  0  0  0  0
   35.2400   25.4580   36.9370 N   0  0  0  0  0  0  0  0  0  0  0  0
   34.9270   27.7980   36.5810 C   0  0  0  0  0  0  0  0  0  0  0  0
   35.8040   28.0320   37.6430 C   0  0  0  0  0  0  0  0  0  0  0  0
   36.1030   29.3510   38.0210 N   0  0  0  0  0  0  0  0  0  0  0  0
   35.4890   30.3780   37.2790 C   0  0  0  0  0  0  0  0  0  0  0  0
   34.6210   30.0480   36.2370 C   0  0  0  0  0  0  0  0  0  0  0  0
   34.3830   28.7970   35.9370 C   0  0  0  0  0  0  0  0  0  0  0  0
   33.7080   28.5804   35.1222 H   0  0  0  0  0  0  0  0  0  0  0  0
   35.7120   31.5740   37.5570 O   0  0  0  0  0  0  0  0  0  0  0  0
   34.0480   31.1100   35.5650 O   0  0  0  0  0  0  0  0  0  0  0  0
   33.1240   31.0170   34.5500 C   0  0  0  0  0  0  0  0  0  0  0  0
   33.4970   31.4270   33.2720 C   0  0  0  0  0  0  0  0  0  0  0  0
   34.4945   31.8016   33.0959 H   0  0  0  0  0  0  0  0  0  0  0  0
   32.5880   31.3550   32.2230 C   0  0  0  0  0  0  0  0  0  0  0  0
   32.8789   31.6646   31.2300 H   0  0  0  0  0  0  0  0  0  0  0  0
   31.2990   30.8810   32.4600 C   0  0  0  0  0  0  0  0  0  0  0  0
   30.9150   30.4780   33.7360 C   0  0  0  0  0  0  0  0  0  0  0  0
   29.9138   30.1137   33.9129 H   0  0  0  0  0  0  0  0  0  0  0  0
   31.8320   30.5480   34.7840 C   0  0  0  0  0  0  0  0  0  0  0  0
   37.0270   29.6290   39.1330 C   0  0  0  0  0  0  0  0  0  0  0  0
   37.3777   28.6884   39.5577 H   0  0  0  0  0  0  0  0  0  0  0  0
   36.5090   30.2036   39.9008 H   0  0  0  0  0  0  0  0  0  0  0  0
   37.8784   30.2008   38.7637 H   0  0  0  0  0  0  0  0  0  0  0  0
   36.3770   24.0890   41.4200 N   0  0  0  0  0  0  0  0  0  0  0  0
   38.9430   24.1460   39.5200 C   0  0  0  0  0  0  0  0  0  0  0  0
   38.5971   23.1504   39.7978 H   0  0  0  0  0  0  0  0  0  0  0  0
   39.7356   24.4582   40.2001 H   0  0  0  0  0  0  0  0  0  0  0  0
   39.3265   24.1260   38.4999 H   0  0  0  0  0  0  0  0  0  0  0  0
   36.8500   22.7940   41.5920 N   0  0  0  0  0  0  0  0  0  0  0  0
   35.6840   22.0990   41.9640 N   0  0  0  0  0  0  0  0  0  0  0  0
   34.6230   22.9580   42.0090 C   0  0  0  0  0  0  0  0  0  0  0  0
   33.6136   22.6766   42.2705 H   0  0  0  0  0  0  0  0  0  0  0  0
   35.0150   24.2150   41.6790 N   0  0  0  0  0  0  0  0  0  0  0  0
   31.4570   30.1540   36.0150 F   0  0  0  0  0  0  0  0  0  0  0  0
   30.4280   30.8100   31.4450 F   0  0  0  0  0  0  0  0  0  0  0  0
  1  2  1  0  0  0  0
  1  3  1  0  0  0  0
  1  8  1  0  0  0  0
  3  4  1  0  0  0  0
  3  5  1  0  0  0  0
  3 36  1  0  0  0  0
  5  6  1  0  0  0  0
  5  7  1  0  0  0  0
  5 35  1  0  0  0  0
  8  9  1  0  0  0  0
  8 12  2  0  0  0  0
  9 14  2  0  0  0  0
 10 11  1  0  0  0  0
 10 12  1  0  0  0  0
 10 13  2  0  0  0  0
 13 14  1  0  0  0  0
 13 18  1  0  0  0  0
 14 15  1  0  0  0  0
 15 16  1  0  0  0  0
 15 31  1  0  0  0  0
 16 17  1  0  0  0  0
 16 20  2  0  0  0  0
 17 18  2  0  0  0  0
 17 21  1  0  0  0  0
 18 19  1  0  0  0  0
 21 22  1  0  0  0  0
 22 23  1  0  0  0  0
 22 30  2  0  0  0  0
 23 24  1  0  0  0  0
 23 25  2  0  0  0  0
 25 26  1  0  0  0  0
 25 27  1  0  0  0  0
 27 28  2  0  0  0  0
 27 46  1  0  0  0  0
 28 29  1  0  0  0  0
 28 30  1  0  0  0  0
 30 45  1  0  0  0  0
 31 32  1  0  0  0  0
 31 33  1  0  0  0  0
 31 34  1  0  0  0  0
 35 40  1  0  0  0  0
 35 44  1  0  0  0  0
 36 37  1  0  0  0  0
 36 38  1  0  0  0  0
 36 39  1  0  0  0  0
 40 41  2  0  0  0  0
 41 42  1  0  0  0  0
 42 43  1  0  0  0  0
 42 44  2  0  0  0  0
M  END
$$$$
p38_goldstein_01_2a_3fln.C
  MOE2024           3D
p38_goldstein_01_2a_3fln
 46 49  0  0  0  0  0  0  0  0999 V2000
   38.4940   24.9410   39.6920 C   0  0  0  0  0  0  0  0  0  0  0  0
   38.7963   24.0294   39.1766 H   0  0  0  0  0  0  0  0  0  0  0  0
   38.6765   25.8005   39.0470 H   0  0  0  0  0  0  0  0  0  0  0  0
   39.2950   25.0900   40.9880 C   0  0  0  0  0  0  0  0  0  0  0  0
   39.0130   26.0203   41.4811 H   0  0  0  0  0  0  0  0  0  0  0  0
   40.3593   25.1112   40.7535 H   0  0  0  0  0  0  0  0  0  0  0  0
   39.0240   23.9860   41.8660 O   0  0  0  0  0  0  0  0  0  0  0  0
   37.6450   23.8470   42.2420 C   0  0  0  0  0  0  0  0  0  0  0  0
   37.3315   24.7330   42.7942 H   0  0  0  0  0  0  0  0  0  0  0  0
   37.5313   22.9660   42.8737 H   0  0  0  0  0  0  0  0  0  0  0  0
   36.7700   23.6920   40.9970 C   0  0  0  0  0  0  0  0  0  0  0  0
   35.7210   23.6740   41.2927 H   0  0  0  0  0  0  0  0  0  0  0  0
   37.0214   22.7589   40.4927 H   0  0  0  0  0  0  0  0  0  0  0  0
   37.0080   24.8660   40.0410 C   0  0  0  0  0  0  0  0  0  0  0  0
   36.6891   25.8031   40.4972 H   0  0  0  0  0  0  0  0  0  0  0  0
   35.1120   25.3210   36.8900 N   0  0  0  0  0  0  0  0  0  0  0  0
   35.8020   25.5900   38.0310 C   0  0  0  0  0  0  0  0  0  0  0  0
   35.6030   27.9150   37.6560 C   0  0  0  0  0  0  0  0  0  0  0  0
   34.8880   27.6540   36.4820 C   0  0  0  0  0  0  0  0  0  0  0  0
   34.6570   26.3240   36.1200 C   0  0  0  0  0  0  0  0  0  0  0  0
   34.1096   26.1010   35.2161 H   0  0  0  0  0  0  0  0  0  0  0  0
   36.0400   26.8740   38.4000 N   0  0  0  0  0  0  0  0  0  0  0  0
   36.2680   24.5800   38.8140 N   0  0  0  0  0  0  0  0  0  0  0  0
   36.1005   23.6212   38.5441 H   0  0  0  0  0  0  0  0  0  0  0  0
   35.8800   29.2410   38.0720 N   0  0  0  0  0  0  0  0  0  0  0  0
   35.4190   30.3190   37.2830 C   0  0  0  0  0  0  0  0  0  0  0  0
   34.6540   30.0300   36.0440 C   0  0  0  0  0  0  0  0  0  0  0  0
   34.4160   28.7010   35.6820 C   0  0  0  0  0  0  0  0  0  0  0  0
   33.8647   28.4808   34.7798 H   0  0  0  0  0  0  0  0  0  0  0  0
   36.6390   29.4990   39.3080 C   0  0  0  0  0  0  0  0  0  0  0  0
   36.9060   28.5510   39.7750 H   0  0  0  0  0  0  0  0  0  0  0  0
   36.0267   30.0828   39.9952 H   0  0  0  0  0  0  0  0  0  0  0  0
   37.5459   30.0541   39.0683 H   0  0  0  0  0  0  0  0  0  0  0  0
   35.6340   31.5070   37.6100 O   0  0  0  0  0  0  0  0  0  0  0  0
   33.2430   31.0210   34.3310 C   0  0  0  0  0  0  0  0  0  0  0  0
   33.5830   31.3960   33.0370 C   0  0  0  0  0  0  0  0  0  0  0  0
   34.5834   31.7410   32.8213 H   0  0  0  0  0  0  0  0  0  0  0  0
   32.6370   31.3280   32.0180 C   0  0  0  0  0  0  0  0  0  0  0  0
   32.9052   31.6075   31.0099 H   0  0  0  0  0  0  0  0  0  0  0  0
   31.3460   30.8990   32.3030 C   0  0  0  0  0  0  0  0  0  0  0  0
   30.9940   30.5290   33.6010 C   0  0  0  0  0  0  0  0  0  0  0  0
   29.9894   30.1975   33.8183 H   0  0  0  0  0  0  0  0  0  0  0  0
   31.9470   30.5900   34.6150 C   0  0  0  0  0  0  0  0  0  0  0  0
   34.2090   31.1040   35.3060 O   0  0  0  0  0  0  0  0  0  0  0  0
   30.4400   30.8330   31.3130 F   0  0  0  0  0  0  0  0  0  0  0  0
   31.6040   30.2280   35.8610 F   0  0  0  0  0  0  0  0  0  0  0  0
  1  2  1  0  0  0  0
  1  3  1  0  0  0  0
  1  4  1  0  0  0  0
  1 14  1  0  0  0  0
  4  5  1  0  0  0  0
  4  6  1  0  0  0  0
  4  7  1  0  0  0  0
  7  8  1  0  0  0  0
  8  9  1  0  0  0  0
  8 10  1  0  0  0  0
  8 11  1  0  0  0  0
 11 12  1  0  0  0  0
 11 13  1  0  0  0  0
 11 14  1  0  0  0  0
 14 15  1  0  0  0  0
 14 23  1  0  0  0  0
 16 17  1  0  0  0  0
 16 20  2  0  0  0  0
 17 22  2  0  0  0  0
 17 23  1  0  0  0  0
 18 19  2  0  0  0  0
 18 22  1  0  0  0  0
 18 25  1  0  0  0  0
 19 20  1  0  0  0  0
 19 28  1  0  0  0  0
 20 21  1  0  0  0  0
 23 24  1  0  0  0  0
 25 26  1  0  0  0  0
 25 30  1  0  0  0  0
 26 27  1  0  0  0  0
 26 34  2  0  0  0  0
 27 28  2  0  0  0  0
 27 44  1  0  0  0  0
 28 29  1  0  0  0  0
 30 31  1  0  0  0  0
 30 32  1  0  0  0  0
 30 33  1  0  0  0  0
 35 36  1  0  0  0  0
 35 43  2  0  0  0  0
 35 44  1  0  0  0  0
 36 37  1  0  0  0  0
 36 38  2  0  0  0  0
 38 39  1  0  0  0  0
 38 40  1  0  0  0  0
 40 41  2  0  0  0  0
 40 45  1  0  0  0  0
 41 42  1  0  0  0  0
 41 43  1  0  0  0  0
 43 46  1  0  0  0  0
M  END
$$$$
