p38_goldstein_01_2a_3fln.C_1_1037
     RDKit          3D

 46 49  0  0  0  0  0  0  0  0999 V2000
   36.6399   24.1985   40.2901 C   0  0  0  0  0  0  0  0  0  0  0  0
   37.1670   23.4034   39.7172 H   0  0  0  0  0  0  0  0  0  0  0  0
   36.9043   25.1810   39.8443 H   0  0  0  0  0  0  0  0  0  0  0  0
   37.1085   24.1516   41.7495 C   0  0  0  0  0  0  0  0  0  0  0  0
   36.6698   25.0065   42.3094 H   0  0  0  0  0  0  0  0  0  0  0  0
   38.2153   24.2492   41.7857 H   0  0  0  0  0  0  0  0  0  0  0  0
   36.7317   22.9327   42.3811 O   0  0  0  0  0  0  0  0  0  0  0  0
   35.3220   22.7389   42.4011 C   0  0  0  0  0  0  0  0  0  0  0  0
   34.8452   23.5644   42.9739 H   0  0  0  0  0  0  0  0  0  0  0  0
   35.0968   21.7838   42.9236 H   0  0  0  0  0  0  0  0  0  0  0  0
   34.7424   22.6888   40.9838 C   0  0  0  0  0  0  0  0  0  0  0  0
   33.6358   22.5904   41.0385 H   0  0  0  0  0  0  0  0  0  0  0  0
   35.1469   21.7962   40.4570 H   0  0  0  0  0  0  0  0  0  0  0  0
   35.1199   23.9589   40.2124 C   0  0  0  0  0  0  0  0  0  0  0  0
   34.6248   24.7908   40.7691 H   0  0  0  0  0  0  0  0  0  0  0  0
   34.2585   24.7947   36.6758 N   0  0  0  0  0  0  0  0  0  0  0  0
   34.5393   24.9929   38.0060 C   0  0  0  0  0  0  0  0  0  0  0  0
   34.5992   27.3269   37.8374 C   0  0  0  0  0  0  0  0  0  0  0  0
   34.2815   27.1812   36.4385 C   0  0  0  0  0  0  0  0  0  0  0  0
   34.1242   25.8893   35.9170 C   0  0  0  0  0  0  0  0  0  0  0  0
   33.8944   25.7437   34.8696 H   0  0  0  0  0  0  0  0  0  0  0  0
   34.7276   26.2087   38.5891 N   0  0  0  0  0  0  0  0  0  0  0  0
   34.6061   23.8964   38.8217 N   0  0  0  0  0  0  0  0  0  0  0  0
   34.5468   22.9833   38.3780 H   0  0  0  0  0  0  0  0  0  0  0  0
   34.7611   28.6151   38.3486 N   0  0  0  0  0  0  0  0  0  0  0  0
   34.6326   29.7778   37.5821 C   0  0  0  0  0  0  0  0  0  0  0  0
   34.2931   29.6095   36.1896 C   0  0  0  0  0  0  0  0  0  0  0  0
   34.1503   28.3227   35.6773 C   0  0  0  0  0  0  0  0  0  0  0  0
   33.9286   28.2115   34.6153 H   0  0  0  0  0  0  0  0  0  0  0  0
   35.0928   28.7968   39.7779 C   0  0  0  0  0  0  0  0  0  0  0  0
   35.1830   27.8590   40.3668 H   0  0  0  0  0  0  0  0  0  0  0  0
   34.3134   29.4110   40.2848 H   0  0  0  0  0  0  0  0  0  0  0  0
   36.0634   29.3326   39.8895 H   0  0  0  0  0  0  0  0  0  0  0  0
   34.8033   30.8787   38.1154 O   0  0  0  0  0  0  0  0  0  0  0  0
   33.2584   30.8764   34.3841 C   0  0  0  0  0  0  0  0  0  0  0  0
   33.6659   31.4728   33.1873 C   0  0  0  0  0  0  0  0  0  0  0  0
   34.6992   31.7578   33.0513 H   0  0  0  0  0  0  0  0  0  0  0  0
   32.7425   31.6826   32.1606 C   0  0  0  0  0  0  0  0  0  0  0  0
   33.0650   32.1284   31.2312 H   0  0  0  0  0  0  0  0  0  0  0  0
   31.4151   31.3152   32.3545 C   0  0  0  0  0  0  0  0  0  0  0  0
   30.9677   30.7504   33.5489 C   0  0  0  0  0  0  0  0  0  0  0  0
   29.9311   30.4840   33.6848 H   0  0  0  0  0  0  0  0  0  0  0  0
   31.9061   30.5419   34.5609 C   0  0  0  0  0  0  0  0  0  0  0  0
   34.2002   30.7191   35.4012 O   0  0  0  0  0  0  0  0  0  0  0  0
   30.5327   31.5158   31.3438 F   0  0  0  0  0  0  0  0  0  0  0  0
   31.4748   30.0060   35.7349 F   0  0  0  0  0  0  0  0  0  0  0  0
  1  2  1  0
  1  3  1  0
  1  4  1  0
  1 14  1  0
  4  5  1  0
  4  6  1  0
  4  7  1  0
  7  8  1  0
  8  9  1  0
  8 10  1  0
  8 11  1  0
 11 12  1  0
 11 13  1  0
 11 14  1  0
 14 15  1  0
 14 23  1  0
 16 17  2  0
 16 20  1  0
 17 22  1  0
 17 23  1  0
 18 19  1  0
 18 22  2  0
 18 25  1  0
 19 20  2  0
 19 28  1  0
 20 21  1  0
 23 24  1  0
 25 26  1  0
 25 30  1  0
 26 27  1  0
 26 34  2  0
 27 28  2  0
 27 44  1  0
 28 29  1  0
 30 31  1  0
 30 32  1  0
 30 33  1  0
 35 36  2  0
 35 43  1  0
 35 44  1  0
 36 37  1  0
 36 38  1  0
 38 39  1  0
 38 40  2  0
 40 41  1  0
 40 45  1  0
 41 42  1  0
 41 43  2  0
 43 46  1  0
M  END
> <intraLJ>
33.404    

> <intraEL>
-14.906   

> <intraDihe>
20.198    

> <interLJ>
0.000     

> <interEJ>
0.000     

> <gridLJ>
-10.702   

> <gridEL>
0.000     

> <totalE>
27.995    

> <LGFE>
-10.702 

> <LE>
-0.382  

> <SMILES>
Cn1c(=O)c(Oc2ccc(F)cc2F)cc2cnc(NC3CCOCC3)nc21

> <atom.dprop.GFE>
-0.2368 0.0000 0.0000 -0.1658 0.0000 0.0000 -0.5820 -0.1975 0.0000 0.0000 -0.3403 0.0000 0.0000 -0.1991 0.0000 -1.1750 -0.0226 -0.1795 -0.0645 -0.1117 0.0000 -0.2210 -0.5050 0.0000 -0.0579 0.0130 0.0768 0.0977 0.0000 -0.6067 0.0000 0.0000 0.0000 -0.1660 -0.1231 -0.1443 0.0000 -0.1570 0.0000 -0.1972 -0.1197 0.0000 -0.2144 -1.3430 -1.7410 -2.0180

> <atom.prop.CLASS>
PRPC NCLA NCLA PRPC NCLA NCLA DMEO PRPC NCLA NCLA PRPC NCLA NCLA PRPC NCLA IMIN GEHC GEHC BENC BENC NCLA IMIN FORN NCLA GEHC GEHC BENC BENC NCLA PRPC NCLA NCLA NCLA FORO BENC BENC NCLA BENC NCLA BENC BENC NCLA BENC DMEO FLBX FLBX

> <cluster_id>
1

> <rmsd_to_cluster_rep>
0.00    

> <ligRMSD>
1.38    

> <ligCOMD>
1.21    

$$$$
p38_goldstein_01_2a_3fln.C_2_145
     RDKit          3D

 46 49  0  0  0  0  0  0  0  0999 V2000
   36.6134   24.2046   40.2453 C   0  0  0  0  0  0  0  0  0  0  0  0
   37.1427   23.4193   39.6611 H   0  0  0  0  0  0  0  0  0  0  0  0
   36.8678   25.1935   39.8076 H   0  0  0  0  0  0  0  0  0  0  0  0
   37.0915   24.1466   41.7011 C   0  0  0  0  0  0  0  0  0  0  0  0
   36.6501   24.9927   42.2723 H   0  0  0  0  0  0  0  0  0  0  0  0
   38.1977   24.2522   41.7314 H   0  0  0  0  0  0  0  0  0  0  0  0
   36.7276   22.9187   42.3228 O   0  0  0  0  0  0  0  0  0  0  0  0
   35.3196   22.7143   42.3497 C   0  0  0  0  0  0  0  0  0  0  0  0
   34.8403   23.5306   42.9337 H   0  0  0  0  0  0  0  0  0  0  0  0
   35.1047   21.7524   42.8640 H   0  0  0  0  0  0  0  0  0  0  0  0
   34.7315   22.6741   40.9355 C   0  0  0  0  0  0  0  0  0  0  0  0
   33.6260   22.5670   40.9962 H   0  0  0  0  0  0  0  0  0  0  0  0
   35.1391   21.7899   40.3974 H   0  0  0  0  0  0  0  0  0  0  0  0
   35.0948   23.9546   40.1746 C   0  0  0  0  0  0  0  0  0  0  0  0
   34.5970   24.7772   40.7427 H   0  0  0  0  0  0  0  0  0  0  0  0
   34.2212   24.8130   36.6466 N   0  0  0  0  0  0  0  0  0  0  0  0
   34.5079   25.0031   37.9767 C   0  0  0  0  0  0  0  0  0  0  0  0
   34.5783   27.3376   37.8197 C   0  0  0  0  0  0  0  0  0  0  0  0
   34.2547   27.2005   36.4213 C   0  0  0  0  0  0  0  0  0  0  0  0
   34.0892   25.9121   35.8939 C   0  0  0  0  0  0  0  0  0  0  0  0
   33.8548   25.7728   34.8466 H   0  0  0  0  0  0  0  0  0  0  0  0
   34.7042   26.2150   38.5652 N   0  0  0  0  0  0  0  0  0  0  0  0
   34.5727   23.9022   38.7866 N   0  0  0  0  0  0  0  0  0  0  0  0
   34.5052   22.9916   38.3387 H   0  0  0  0  0  0  0  0  0  0  0  0
   34.7483   28.6224   38.3368 N   0  0  0  0  0  0  0  0  0  0  0  0
   34.6224   29.7896   37.5767 C   0  0  0  0  0  0  0  0  0  0  0  0
   34.2768   29.6300   36.1846 C   0  0  0  0  0  0  0  0  0  0  0  0
   34.1260   28.3466   35.6663 C   0  0  0  0  0  0  0  0  0  0  0  0
   33.8997   28.2418   34.6046 H   0  0  0  0  0  0  0  0  0  0  0  0
   35.0862   28.7953   39.7657 C   0  0  0  0  0  0  0  0  0  0  0  0
   35.1742   27.8541   40.3495 H   0  0  0  0  0  0  0  0  0  0  0  0
   34.3116   29.4106   40.2787 H   0  0  0  0  0  0  0  0  0  0  0  0
   36.0597   29.3259   39.8763 H   0  0  0  0  0  0  0  0  0  0  0  0
   34.8003   30.8870   38.1149 O   0  0  0  0  0  0  0  0  0  0  0  0
   33.2445   30.9090   34.3864 C   0  0  0  0  0  0  0  0  0  0  0  0
   33.6576   31.4928   33.1853 C   0  0  0  0  0  0  0  0  0  0  0  0
   34.6945   31.7623   33.0454 H   0  0  0  0  0  0  0  0  0  0  0  0
   32.7349   31.7099   32.1595 C   0  0  0  0  0  0  0  0  0  0  0  0
   33.0615   32.1458   31.2269 H   0  0  0  0  0  0  0  0  0  0  0  0
   31.4029   31.3624   32.3584 C   0  0  0  0  0  0  0  0  0  0  0  0
   30.9502   30.8108   33.5570 C   0  0  0  0  0  0  0  0  0  0  0  0
   29.9103   30.5599   33.6966 H   0  0  0  0  0  0  0  0  0  0  0  0
   31.8879   30.5947   34.5680 C   0  0  0  0  0  0  0  0  0  0  0  0
   34.1862   30.7440   35.4022 O   0  0  0  0  0  0  0  0  0  0  0  0
   30.5211   31.5698   31.3486 F   0  0  0  0  0  0  0  0  0  0  0  0
   31.4517   30.0715   35.7460 F   0  0  0  0  0  0  0  0  0  0  0  0
  1  2  1  0
  1  3  1  0
  1  4  1  0
  1 14  1  0
  4  5  1  0
  4  6  1  0
  4  7  1  0
  7  8  1  0
  8  9  1  0
  8 10  1  0
  8 11  1  0
 11 12  1  0
 11 13  1  0
 11 14  1  0
 14 15  1  0
 14 23  1  0
 16 17  2  0
 16 20  1  0
 17 22  1  0
 17 23  1  0
 18 19  1  0
 18 22  2  0
 18 25  1  0
 19 20  2  0
 19 28  1  0
 20 21  1  0
 23 24  1  0
 25 26  1  0
 25 30  1  0
 26 27  1  0
 26 34  2  0
 27 28  2  0
 27 44  1  0
 28 29  1  0
 30 31  1  0
 30 32  1  0
 30 33  1  0
 35 36  2  0
 35 43  1  0
 35 44  1  0
 36 37  1  0
 36 38  1  0
 38 39  1  0
 38 40  2  0
 40 41  1  0
 40 45  1  0
 41 42  1  0
 41 43  2  0
 43 46  1  0
M  END
> <intraLJ>
33.350    

> <intraEL>
-14.900   

> <intraDihe>
20.228    

> <interLJ>
0.000     

> <interEJ>
0.000     

> <gridLJ>
-10.737   

> <gridEL>
0.000     

> <totalE>
27.941    

> <LGFE>
-10.737 

> <LE>
-0.383  

> <SMILES>
Cn1c(=O)c(Oc2ccc(F)cc2F)cc2cnc(NC3CCOCC3)nc21

> <atom.dprop.GFE>
-0.2368 0.0000 0.0000 -0.1658 0.0000 0.0000 -0.5820 -0.1975 0.0000 0.0000 -0.3403 0.0000 0.0000 -0.1991 0.0000 -1.1750 -0.0226 -0.1795 -0.0645 -0.1117 0.0000 -0.2210 -0.5050 0.0000 -0.0579 0.0130 0.0768 0.0977 0.0000 -0.6067 0.0000 0.0000 0.0000 -0.1660 -0.1231 -0.1443 0.0000 -0.1570 0.0000 -0.1972 -0.1551 0.0000 -0.2144 -1.3430 -1.7410 -2.0180

> <atom.prop.CLASS>
PRPC NCLA NCLA PRPC NCLA NCLA DMEO PRPC NCLA NCLA PRPC NCLA NCLA PRPC NCLA IMIN GEHC GEHC BENC BENC NCLA IMIN FORN NCLA GEHC GEHC BENC BENC NCLA PRPC NCLA NCLA NCLA FORO BENC BENC NCLA BENC NCLA BENC BENC NCLA BENC DMEO FLBX FLBX

> <cluster_id>
1

> <rmsd_to_cluster_rep>
0.00    

> <ligRMSD>
1.39    

> <ligCOMD>
1.22    

$$$$
p38_goldstein_02_2b_3flw_210
     RDKit          3D

 49 51  0  0  0  0  0  0  0  0999 V2000
   34.7388   24.9666   35.9149 N   0  0  0  0  0  0  0  0  0  0  0  0
   35.3195   25.1104   37.1547 C   0  0  0  0  0  0  0  0  0  0  0  0
   35.3496   26.2713   37.8661 N   0  0  0  0  0  0  0  0  0  0  0  0
   34.1493   26.0474   35.3877 C   0  0  0  0  0  0  0  0  0  0  0  0
   33.6891   25.9395   34.4142 H   0  0  0  0  0  0  0  0  0  0  0  0
   34.1009   27.2724   36.0666 C   0  0  0  0  0  0  0  0  0  0  0  0
   34.7296   27.3689   37.3622 C   0  0  0  0  0  0  0  0  0  0  0  0
   34.6619   28.5909   38.0349 N   0  0  0  0  0  0  0  0  0  0  0  0
   34.0314   29.7287   37.5249 C   0  0  0  0  0  0  0  0  0  0  0  0
   33.4055   29.6079   36.2351 C   0  0  0  0  0  0  0  0  0  0  0  0
   33.4768   28.3929   35.5568 C   0  0  0  0  0  0  0  0  0  0  0  0
   33.0179   28.3230   34.5699 H   0  0  0  0  0  0  0  0  0  0  0  0
   32.8160   30.7159   35.7022 O   0  0  0  0  0  0  0  0  0  0  0  0
   32.0438   30.7084   34.5484 C   0  0  0  0  0  0  0  0  0  0  0  0
   30.8462   29.9828   34.4641 C   0  0  0  0  0  0  0  0  0  0  0  0
   30.0545   30.0235   33.3162 C   0  0  0  0  0  0  0  0  0  0  0  0
   29.1394   29.4563   33.2479 H   0  0  0  0  0  0  0  0  0  0  0  0
   30.4864   30.8241   32.2584 C   0  0  0  0  0  0  0  0  0  0  0  0
   31.6520   31.5800   32.3271 C   0  0  0  0  0  0  0  0  0  0  0  0
   31.9601   32.2022   31.4999 H   0  0  0  0  0  0  0  0  0  0  0  0
   32.4290   31.5303   33.4859 C   0  0  0  0  0  0  0  0  0  0  0  0
   33.3351   32.1146   33.5558 H   0  0  0  0  0  0  0  0  0  0  0  0
   34.0295   30.7717   38.1868 O   0  0  0  0  0  0  0  0  0  0  0  0
   35.8893   24.0029   37.7336 N   0  0  0  0  0  0  0  0  0  0  0  0
   35.8710   23.1497   37.1800 H   0  0  0  0  0  0  0  0  0  0  0  0
   35.2838   28.7331   39.3672 C   0  0  0  0  0  0  0  0  0  0  0  0
   35.7624   27.8130   39.7648 H   0  0  0  0  0  0  0  0  0  0  0  0
   34.5247   29.0422   40.1225 H   0  0  0  0  0  0  0  0  0  0  0  0
   36.0739   29.5188   39.3488 H   0  0  0  0  0  0  0  0  0  0  0  0
   29.7497   30.8725   31.1211 F   0  0  0  0  0  0  0  0  0  0  0  0
   30.4263   29.2194   35.5099 F   0  0  0  0  0  0  0  0  0  0  0  0
   36.8224   24.0128   38.9041 C   0  0  0  0  0  0  0  0  0  0  0  0
   36.6454   24.9083   39.5396 H   0  0  0  0  0  0  0  0  0  0  0  0
   36.5274   22.7965   39.8094 C   0  0  0  0  0  0  0  0  0  0  0  0
   37.2687   22.7634   40.6382 H   0  0  0  0  0  0  0  0  0  0  0  0
   36.6622   21.8542   39.2339 H   0  0  0  0  0  0  0  0  0  0  0  0
   35.1271   22.8806   40.4434 C   0  0  0  0  0  0  0  0  0  0  0  0
   34.3277   22.8468   39.6736 H   0  0  0  0  0  0  0  0  0  0  0  0
   35.0258   23.8338   41.0068 H   0  0  0  0  0  0  0  0  0  0  0  0
   34.9091   21.7971   41.3306 O   0  0  0  0  0  0  0  0  0  0  0  0
   34.8314   21.0149   40.7787 H   0  0  0  0  0  0  0  0  0  0  0  0
   38.3174   24.0763   38.5000 C   0  0  0  0  0  0  0  0  0  0  0  0
   38.5569   23.1980   37.8617 H   0  0  0  0  0  0  0  0  0  0  0  0
   38.9392   23.9961   39.4204 H   0  0  0  0  0  0  0  0  0  0  0  0
   38.7339   25.3583   37.7636 C   0  0  0  0  0  0  0  0  0  0  0  0
   38.1927   25.4575   36.7993 H   0  0  0  0  0  0  0  0  0  0  0  0
   39.8242   25.3203   37.5493 H   0  0  0  0  0  0  0  0  0  0  0  0
   38.4788   26.5014   38.5696 O   0  0  0  0  0  0  0  0  0  0  0  0
   37.5234   26.6080   38.5754 H   0  0  0  0  0  0  0  0  0  0  0  0
  1  2  2  0
  1  4  1  0
  2  3  1  0
  2 24  1  0
  3  7  2  0
  4  5  1  0
  4  6  2  0
  6  7  1  0
  6 11  1  0
  7  8  1  0
  8  9  1  0
  8 26  1  0
  9 10  1  0
  9 23  2  0
 10 11  2  0
 10 13  1  0
 11 12  1  0
 13 14  1  0
 14 15  2  0
 14 21  1  0
 15 16  1  0
 15 31  1  0
 16 17  1  0
 16 18  2  0
 18 19  1  0
 18 30  1  0
 19 20  1  0
 19 21  2  0
 21 22  1  0
 24 25  1  0
 24 32  1  0
 26 27  1  0
 26 28  1  0
 26 29  1  0
 32 33  1  0
 32 34  1  0
 32 42  1  0
 34 35  1  0
 34 36  1  0
 34 37  1  0
 37 38  1  0
 37 39  1  0
 37 40  1  0
 40 41  1  0
 42 43  1  0
 42 44  1  0
 42 45  1  0
 45 46  1  0
 45 47  1  0
 45 48  1  0
 48 49  1  0
M  END
> <intraLJ>
32.360    

> <intraEL>
-14.855   

> <intraDihe>
20.369    

> <interLJ>
0.000     

> <interEJ>
0.000     

> <gridLJ>
-12.141   

> <gridEL>
0.000     

> <totalE>
25.733    

> <LGFE>
-12.141 

> <LE>
-0.419  

> <SMILES>
Cn1c(=O)c(Oc2ccc(F)cc2F)cc2cnc(NC(CCO)CCO)nc21

> <atom.dprop.GFE>
-1.1750 -0.0989 0.0260 -0.1186 0.0000 -0.0645 -0.1732 -0.0676 0.0130 0.0745 0.0893 0.0000 -1.1680 -0.2144 -0.2004 -0.2331 0.0000 -0.1308 -0.1972 0.0000 -0.2153 0.0000 -0.2090 -0.4340 0.0000 -0.5075 0.0000 0.0000 0.0000 -1.7410 -1.9990 -0.5435 0.0000 -0.1712 0.0000 0.0000 -0.1695 0.0000 0.0000 -0.5570 0.0000 -0.5887 0.0000 0.0000 -0.6580 0.0000 0.0000 -0.7090 0.0000

> <atom.prop.CLASS>
IMIN GEHC IMIN BENC NCLA BENC GEHC GEHC GEHC BENC BENC NCLA DMEO BENC BENC BENC NCLA BENC BENC NCLA BENC NCLA FORO FORN NCLA PRPC NCLA NCLA NCLA FLBX FLBX PRPC NCLA PRPC NCLA NCLA PRPC NCLA NCLA MEOO NCLA PRPC NCLA NCLA PRPC NCLA NCLA MEOO NCLA

> <cluster_id>
1

> <rmsd_to_cluster_rep>
0.00    

> <ligRMSD>
1.26    

> <ligCOMD>
1.03    

$$$$
p38_goldstein_03_2c.C_340
     RDKit          3D

 45 48  0  0  0  0  0  0  0  0999 V2000
   37.7701   25.2793   38.9633 C   0  0  0  0  0  0  0  0  0  0  0  0
   38.2797   24.7021   38.1600 H   0  0  0  0  0  0  0  0  0  0  0  0
   37.7041   26.3397   38.6392 H   0  0  0  0  0  0  0  0  0  0  0  0
   38.6161   25.1862   40.2454 C   0  0  0  0  0  0  0  0  0  0  0  0
   38.1794   25.8506   41.0230 H   0  0  0  0  0  0  0  0  0  0  0  0
   39.6467   25.5433   40.0312 H   0  0  0  0  0  0  0  0  0  0  0  0
   37.4002   23.3384   41.0631 C   0  0  0  0  0  0  0  0  0  0  0  0
   37.5159   22.3096   41.4676 H   0  0  0  0  0  0  0  0  0  0  0  0
   36.9306   23.9660   41.8520 H   0  0  0  0  0  0  0  0  0  0  0  0
   36.4898   23.3014   39.8254 C   0  0  0  0  0  0  0  0  0  0  0  0
   35.4867   22.9215   40.1165 H   0  0  0  0  0  0  0  0  0  0  0  0
   36.9266   22.5957   39.0844 H   0  0  0  0  0  0  0  0  0  0  0  0
   38.6870   23.8589   40.7541 O   0  0  0  0  0  0  0  0  0  0  0  0
   33.8013   30.4397   36.7563 C   0  0  0  0  0  0  0  0  0  0  0  0
   35.0685   25.7425   37.2426 C   0  0  0  0  0  0  0  0  0  0  0  0
   36.3581   24.7008   39.1867 C   0  0  0  0  0  0  0  0  0  0  0  0
   35.8441   25.3487   39.9363 H   0  0  0  0  0  0  0  0  0  0  0  0
   33.9648   27.7222   35.7765 C   0  0  0  0  0  0  0  0  0  0  0  0
   33.3308   28.6998   35.0698 C   0  0  0  0  0  0  0  0  0  0  0  0
   32.8384   28.4201   34.1361 H   0  0  0  0  0  0  0  0  0  0  0  0
   34.5677   28.0476   37.0454 C   0  0  0  0  0  0  0  0  0  0  0  0
   33.9988   26.4135   35.3054 C   0  0  0  0  0  0  0  0  0  0  0  0
   33.5587   26.1585   34.3489 H   0  0  0  0  0  0  0  0  0  0  0  0
   33.2010   30.0291   35.5181 C   0  0  0  0  0  0  0  0  0  0  0  0
   35.0994   29.7141   38.7668 C   0  0  0  0  0  0  0  0  0  0  0  0
   35.0814   30.7964   39.0196 H   0  0  0  0  0  0  0  0  0  0  0  0
   36.1703   29.4059   38.7858 H   0  0  0  0  0  0  0  0  0  0  0  0
   34.5809   29.1803   39.5963 H   0  0  0  0  0  0  0  0  0  0  0  0
   34.5362   25.4281   36.0175 N   0  0  0  0  0  0  0  0  0  0  0  0
   33.7588   31.5833   37.2248 O   0  0  0  0  0  0  0  0  0  0  0  0
   34.4766   29.3971   37.4652 N   0  0  0  0  0  0  0  0  0  0  0  0
   35.1278   27.0167   37.7670 N   0  0  0  0  0  0  0  0  0  0  0  0
   35.5316   24.6558   37.9506 N   0  0  0  0  0  0  0  0  0  0  0  0
   35.5554   23.7789   37.4351 H   0  0  0  0  0  0  0  0  0  0  0  0
   30.0542   30.7647   33.5030 C   0  0  0  0  0  0  0  0  0  0  0  0
   29.0287   30.4265   33.4793 H   0  0  0  0  0  0  0  0  0  0  0  0
   30.8773   30.4149   34.5834 C   0  0  0  0  0  0  0  0  0  0  0  0
   30.5674   31.5109   32.4389 C   0  0  0  0  0  0  0  0  0  0  0  0
   31.9027   31.9302   32.4624 C   0  0  0  0  0  0  0  0  0  0  0  0
   32.3003   32.5049   31.6390 H   0  0  0  0  0  0  0  0  0  0  0  0
   32.7389   31.5688   33.5352 C   0  0  0  0  0  0  0  0  0  0  0  0
   33.7886   31.8222   33.4865 H   0  0  0  0  0  0  0  0  0  0  0  0
   32.2485   30.7816   34.6026 C   0  0  0  0  0  0  0  0  0  0  0  0
   30.2262   29.3068   35.7567 Cl  0  0  0  0  0  0  0  0  0  0  0  0
   29.9324   31.7667   31.6033 H   0  0  0  0  0  0  0  0  0  0  0  0
  1  2  1  0
  1  3  1  0
  1  4  1  0
  1 16  1  0
  4  5  1  0
  4  6  1  0
  4 13  1  0
  7  8  1  0
  7  9  1  0
  7 10  1  0
  7 13  1  0
 10 11  1  0
 10 12  1  0
 10 16  1  0
 14 24  1  0
 14 30  2  0
 14 31  1  0
 15 29  1  0
 15 32  2  0
 15 33  1  0
 16 17  1  0
 16 33  1  0
 18 19  1  0
 18 21  2  0
 18 22  1  0
 19 20  1  0
 19 24  2  0
 21 31  1  0
 21 32  1  0
 22 23  1  0
 22 29  2  0
 24 43  1  0
 25 26  1  0
 25 27  1  0
 25 28  1  0
 25 31  1  0
 33 34  1  0
 35 36  1  0
 35 37  2  0
 35 38  1  0
 37 43  1  0
 37 44  1  0
 38 39  2  0
 38 45  1  0
 39 40  1  0
 39 41  1  0
 41 42  1  0
 41 43  2  0
M  END
> <intraLJ>
32.182    

> <intraEL>
-19.808   

> <intraDihe>
25.239    

> <interLJ>
0.000     

> <interEJ>
0.000     

> <gridLJ>
-6.469    

> <gridEL>
0.000     

> <totalE>
31.144    

> <LGFE>
-6.469  

> <LE>
-0.249  

> <SMILES>
Cn1c(=O)c(-c2ccccc2Cl)cc2cnc(NC3CCOCC3)nc21

> <atom.dprop.GFE>
-0.6200 0.0000 0.0000 -0.4466 0.0000 0.0000 -0.1029 0.0000 0.0000 -0.1712 0.0000 0.0000 -0.9470 0.0513 -0.0989 -0.2667 0.0000 -0.0645 0.0893 0.0000 -0.1465 -0.1186 0.0000 -0.0538 -0.5305 0.0000 0.0000 0.0000 -1.1750 -0.2220 0.0130 -0.2720 -0.0150 0.0000 -0.2331 0.0000 -0.2004 -0.1308 -0.0877 0.0000 -0.2153 0.0000 -0.2144 -0.2900 0.0000

> <atom.prop.CLASS>
PRPC NCLA NCLA PRPC NCLA NCLA PRPC NCLA NCLA PRPC NCLA NCLA DMEO GEHC GEHC PRPC NCLA BENC BENC NCLA GEHC BENC NCLA BENC PRPC NCLA NCLA NCLA IMIN FORO GEHC IMIN FORN NCLA BENC NCLA BENC BENC BENC NCLA BENC NCLA BENC CLBX NCLA

> <cluster_id>
1

> <rmsd_to_cluster_rep>
0.00    

> <ligRMSD>
1.17    

> <ligCOMD>
0.90    

$$$$
p38_goldstein_04_2d_3flz_947
     RDKit          3D

 46 49  0  0  0  0  0  0  0  0999 V2000
   33.9853   24.8194   36.7103 N   0  0  0  0  0  0  0  0  0  0  0  0
   34.2870   24.9252   38.0476 C   0  0  0  0  0  0  0  0  0  0  0  0
   34.6449   26.0812   38.6738 N   0  0  0  0  0  0  0  0  0  0  0  0
   33.9945   25.9533   35.9977 C   0  0  0  0  0  0  0  0  0  0  0  0
   33.7469   25.8826   34.9466 H   0  0  0  0  0  0  0  0  0  0  0  0
   34.3259   27.1901   36.5692 C   0  0  0  0  0  0  0  0  0  0  0  0
   34.6657   27.2366   37.9691 C   0  0  0  0  0  0  0  0  0  0  0  0
   34.9996   28.4727   38.5283 N   0  0  0  0  0  0  0  0  0  0  0  0
   35.0275   29.6707   37.8093 C   0  0  0  0  0  0  0  0  0  0  0  0
   34.6678   29.6022   36.4160 C   0  0  0  0  0  0  0  0  0  0  0  0
   34.3489   28.3682   35.8557 C   0  0  0  0  0  0  0  0  0  0  0  0
   34.1238   28.3302   34.7892 H   0  0  0  0  0  0  0  0  0  0  0  0
   34.7444   30.7354   35.6652 O   0  0  0  0  0  0  0  0  0  0  0  0
   33.9364   30.9835   34.5640 C   0  0  0  0  0  0  0  0  0  0  0  0
   35.3439   30.7180   38.3832 O   0  0  0  0  0  0  0  0  0  0  0  0
   35.3547   28.5606   39.9599 C   0  0  0  0  0  0  0  0  0  0  0  0
   35.3238   27.5976   40.5131 H   0  0  0  0  0  0  0  0  0  0  0  0
   34.6621   29.2521   40.4929 H   0  0  0  0  0  0  0  0  0  0  0  0
   36.3866   28.9626   40.0837 H   0  0  0  0  0  0  0  0  0  0  0  0
   34.5222   31.5112   33.4090 C   0  0  0  0  0  0  0  0  0  0  0  0
   35.5875   31.6880   33.3796 H   0  0  0  0  0  0  0  0  0  0  0  0
   33.7344   31.7914   32.2882 C   0  0  0  0  0  0  0  0  0  0  0  0
   34.1905   32.1865   31.3923 H   0  0  0  0  0  0  0  0  0  0  0  0
   32.3527   31.5625   32.3314 C   0  0  0  0  0  0  0  0  0  0  0  0
   31.7438   31.7800   31.4664 H   0  0  0  0  0  0  0  0  0  0  0  0
   31.7578   31.0613   33.4981 C   0  0  0  0  0  0  0  0  0  0  0  0
   30.6911   30.8957   33.5320 H   0  0  0  0  0  0  0  0  0  0  0  0
   32.5475   30.7760   34.6195 C   0  0  0  0  0  0  0  0  0  0  0  0
   32.0926   30.3929   35.5206 H   0  0  0  0  0  0  0  0  0  0  0  0
   34.1826   23.8046   38.8304 N   0  0  0  0  0  0  0  0  0  0  0  0
   33.9422   22.9247   38.3804 H   0  0  0  0  0  0  0  0  0  0  0  0
   34.5231   23.7954   40.2801 C   0  0  0  0  0  0  0  0  0  0  0  0
   34.0641   24.6800   40.7852 H   0  0  0  0  0  0  0  0  0  0  0  0
   33.8880   22.5955   40.9990 C   0  0  0  0  0  0  0  0  0  0  0  0
   34.2221   21.6506   40.5173 H   0  0  0  0  0  0  0  0  0  0  0  0
   32.7796   22.6525   40.9245 H   0  0  0  0  0  0  0  0  0  0  0  0
   34.2976   22.5789   42.4770 C   0  0  0  0  0  0  0  0  0  0  0  0
   33.8956   21.6620   42.9602 H   0  0  0  0  0  0  0  0  0  0  0  0
   33.8629   23.4599   42.9984 H   0  0  0  0  0  0  0  0  0  0  0  0
   35.7125   22.5971   42.6235 O   0  0  0  0  0  0  0  0  0  0  0  0
   36.2961   23.7734   42.0754 C   0  0  0  0  0  0  0  0  0  0  0  0
   37.3914   23.7555   42.2633 H   0  0  0  0  0  0  0  0  0  0  0  0
   35.8743   24.6670   42.5859 H   0  0  0  0  0  0  0  0  0  0  0  0
   36.0361   23.8697   40.5665 C   0  0  0  0  0  0  0  0  0  0  0  0
   36.4577   24.8203   40.1751 H   0  0  0  0  0  0  0  0  0  0  0  0
   36.5495   23.0248   40.0565 H   0  0  0  0  0  0  0  0  0  0  0  0
  1  2  2  0
  1  4  1  0
  2  3  1  0
  2 30  1  0
  3  7  2  0
  4  5  1  0
  4  6  2  0
  6  7  1  0
  6 11  1  0
  7  8  1  0
  8  9  1  0
  8 16  1  0
  9 10  1  0
  9 15  2  0
 10 11  2  0
 10 13  1  0
 11 12  1  0
 13 14  1  0
 14 20  2  0
 14 28  1  0
 16 17  1  0
 16 18  1  0
 16 19  1  0
 20 21  1  0
 20 22  1  0
 22 23  1  0
 22 24  2  0
 24 25  1  0
 24 26  1  0
 26 27  1  0
 26 28  2  0
 28 29  1  0
 30 31  1  0
 30 32  1  0
 32 33  1  0
 32 34  1  0
 32 44  1  0
 34 35  1  0
 34 36  1  0
 34 37  1  0
 37 38  1  0
 37 39  1  0
 37 40  1  0
 40 41  1  0
 41 42  1  0
 41 43  1  0
 41 44  1  0
 44 45  1  0
 44 46  1  0
M  END
> <intraLJ>
35.954    

> <intraEL>
-15.660   

> <intraDihe>
19.918    

> <interLJ>
0.000     

> <interEJ>
0.000     

> <gridLJ>
-7.325    

> <gridEL>
0.000     

> <totalE>
32.887    

> <LGFE>
-7.325  

> <LE>
-0.282  

> <SMILES>
Cn1c(=O)c(Oc2ccccc2)cc2cnc(NC3CCOCC3)nc21

> <atom.dprop.GFE>
-1.1750 -0.0226 -0.2210 -0.1117 0.0000 -0.0645 -0.1795 -0.0579 -0.0596 0.0768 0.0114 0.0000 -1.3430 0.0292 -0.2740 -0.5408 0.0000 0.0000 0.0000 0.0120 0.0000 -0.0217 0.0000 -0.1570 0.0000 -0.2153 0.0000 -0.2144 0.0000 -0.5050 0.0000 -0.3114 0.0000 -0.3403 0.0000 0.0000 -0.3207 0.0000 0.0000 -1.0130 -0.0693 0.0000 0.0000 -0.2368 0.0000 0.0000

> <atom.prop.CLASS>
IMIN GEHC IMIN BENC NCLA BENC GEHC GEHC GEHC BENC BENC NCLA DMEO BENC FORO PRPC NCLA NCLA NCLA BENC NCLA BENC NCLA BENC NCLA BENC NCLA BENC NCLA FORN NCLA PRPC NCLA PRPC NCLA NCLA PRPC NCLA NCLA DMEO PRPC NCLA NCLA PRPC NCLA NCLA

> <cluster_id>
1

> <rmsd_to_cluster_rep>
0.00    

> <ligRMSD>
1.89    

> <ligCOMD>
1.14    

$$$$
p38_goldstein_05_2e.C_624
     RDKit          3D

 46 49  0  0  0  0  0  0  0  0999 V2000
   36.6084   24.1628   40.2191 C   0  0  0  0  0  0  0  0  0  0  0  0
   37.1285   23.3803   39.6230 H   0  0  0  0  0  0  0  0  0  0  0  0
   36.8593   25.1542   39.7849 H   0  0  0  0  0  0  0  0  0  0  0  0
   37.1036   24.0938   41.6682 C   0  0  0  0  0  0  0  0  0  0  0  0
   36.6699   24.9361   42.2510 H   0  0  0  0  0  0  0  0  0  0  0  0
   38.2102   24.1979   41.6861 H   0  0  0  0  0  0  0  0  0  0  0  0
   35.3379   22.6566   42.3265 C   0  0  0  0  0  0  0  0  0  0  0  0
   35.1293   21.6898   42.8343 H   0  0  0  0  0  0  0  0  0  0  0  0
   34.8658   23.4673   42.9240 H   0  0  0  0  0  0  0  0  0  0  0  0
   34.7326   22.6295   40.9196 C   0  0  0  0  0  0  0  0  0  0  0  0
   33.6278   22.5232   40.9925 H   0  0  0  0  0  0  0  0  0  0  0  0
   35.1328   21.7498   40.3685 H   0  0  0  0  0  0  0  0  0  0  0  0
   30.7449   30.7494   33.7127 C   0  0  0  0  0  0  0  0  0  0  0  0
   29.7191   30.4438   33.8516 H   0  0  0  0  0  0  0  0  0  0  0  0
   36.7457   22.8615   42.2847 O   0  0  0  0  0  0  0  0  0  0  0  0
   34.5647   29.7858   37.6627 C   0  0  0  0  0  0  0  0  0  0  0  0
   31.6854   30.5367   34.7308 C   0  0  0  0  0  0  0  0  0  0  0  0
   31.3851   30.0723   35.6579 H   0  0  0  0  0  0  0  0  0  0  0  0
   34.4378   24.9944   38.0049 C   0  0  0  0  0  0  0  0  0  0  0  0
   35.0890   23.9165   40.1672 C   0  0  0  0  0  0  0  0  0  0  0  0
   34.6001   24.7349   40.7490 H   0  0  0  0  0  0  0  0  0  0  0  0
   34.0887   27.2147   36.5020 C   0  0  0  0  0  0  0  0  0  0  0  0
   33.9130   28.3726   35.7753 C   0  0  0  0  0  0  0  0  0  0  0  0
   33.6139   28.2859   34.7302 H   0  0  0  0  0  0  0  0  0  0  0  0
   31.1618   31.3574   32.5278 C   0  0  0  0  0  0  0  0  0  0  0  0
   32.4755   31.7740   32.3319 C   0  0  0  0  0  0  0  0  0  0  0  0
   32.7793   32.2529   31.4133 H   0  0  0  0  0  0  0  0  0  0  0  0
   33.4065   31.5652   33.3531 C   0  0  0  0  0  0  0  0  0  0  0  0
   34.4303   31.8846   33.2231 H   0  0  0  0  0  0  0  0  0  0  0  0
   34.5166   27.3299   37.8734 C   0  0  0  0  0  0  0  0  0  0  0  0
   33.8731   25.9354   35.9714 C   0  0  0  0  0  0  0  0  0  0  0  0
   33.5596   25.8127   34.9428 H   0  0  0  0  0  0  0  0  0  0  0  0
   34.1108   29.6473   36.2994 C   0  0  0  0  0  0  0  0  0  0  0  0
   33.0224   30.9247   34.5353 C   0  0  0  0  0  0  0  0  0  0  0  0
   35.1809   28.6933   39.8008 C   0  0  0  0  0  0  0  0  0  0  0  0
   35.3463   29.7323   40.1596 H   0  0  0  0  0  0  0  0  0  0  0  0
   36.1427   28.1508   39.9518 H   0  0  0  0  0  0  0  0  0  0  0  0
   34.4276   28.2399   40.4856 H   0  0  0  0  0  0  0  0  0  0  0  0
   30.2642   31.5530   31.5295 F   0  0  0  0  0  0  0  0  0  0  0  0
   33.9726   30.7732   35.5411 O   0  0  0  0  0  0  0  0  0  0  0  0
   34.0506   24.8254   36.6974 N   0  0  0  0  0  0  0  0  0  0  0  0
   34.7914   30.8762   38.1958 O   0  0  0  0  0  0  0  0  0  0  0  0
   34.7371   28.6047   38.3937 N   0  0  0  0  0  0  0  0  0  0  0  0
   34.6883   26.1972   38.5965 N   0  0  0  0  0  0  0  0  0  0  0  0
   34.5517   23.8776   38.7862 N   0  0  0  0  0  0  0  0  0  0  0  0
   34.5089   22.9758   38.3180 H   0  0  0  0  0  0  0  0  0  0  0  0
  1  2  1  0
  1  3  1  0
  1  4  1  0
  1 20  1  0
  4  5  1  0
  4  6  1  0
  4 15  1  0
  7  8  1  0
  7  9  1  0
  7 10  1  0
  7 15  1  0
 10 11  1  0
 10 12  1  0
 10 20  1  0
 13 14  1  0
 13 17  2  0
 13 25  1  0
 16 33  1  0
 16 42  2  0
 16 43  1  0
 17 18  1  0
 17 34  1  0
 19 41  1  0
 19 44  2  0
 19 45  1  0
 20 21  1  0
 20 45  1  0
 22 23  1  0
 22 30  2  0
 22 31  1  0
 23 24  1  0
 23 33  2  0
 25 26  2  0
 25 39  1  0
 26 27  1  0
 26 28  1  0
 28 29  1  0
 28 34  2  0
 30 43  1  0
 30 44  1  0
 31 32  1  0
 31 41  2  0
 33 40  1  0
 34 40  1  0
 35 36  1  0
 35 37  1  0
 35 38  1  0
 35 43  1  0
 45 46  1  0
M  END
> <intraLJ>
34.474    

> <intraEL>
-16.095   

> <intraDihe>
19.800    

> <interLJ>
0.000     

> <interEJ>
0.000     

> <gridLJ>
-8.813    

> <gridEL>
0.000     

> <totalE>
29.366    

> <LGFE>
-8.813  

> <LE>
-0.326  

> <SMILES>
Cn1c(=O)c(Oc2ccc(F)cc2)cc2cnc(NC3CCOCC3)nc21

> <atom.dprop.GFE>
-0.2368 0.0000 0.0000 -0.1658 0.0000 0.0000 -0.1975 0.0000 0.0000 -0.3403 0.0000 0.0000 -0.2331 0.0000 -0.5820 0.0130 -0.2004 0.0000 -0.0226 -0.1991 0.0000 -0.0645 0.0114 0.0000 -0.1972 -0.1570 0.0000 -0.1443 0.0000 -0.1795 -0.1117 0.0000 0.0768 -0.1231 -0.5408 0.0000 0.0000 0.0000 -1.7410 -1.3430 -1.1750 -0.1660 -0.0676 -0.2210 -0.5050 0.0000

> <atom.prop.CLASS>
PRPC NCLA NCLA PRPC NCLA NCLA PRPC NCLA NCLA PRPC NCLA NCLA BENC NCLA DMEO GEHC BENC NCLA GEHC PRPC NCLA BENC BENC NCLA BENC BENC NCLA BENC NCLA GEHC BENC NCLA BENC BENC PRPC NCLA NCLA NCLA FLBX DMEO IMIN FORO GEHC IMIN FORN NCLA

> <cluster_id>
1

> <rmsd_to_cluster_rep>
0.00    

> <ligRMSD>
1.33    

> <ligCOMD>
1.16    

$$$$
p38_goldstein_06_2f.C_507
     RDKit          3D

 46 49  0  0  0  0  0  0  0  0999 V2000
   38.4278   25.8142   38.3100 C   0  0  0  0  0  0  0  0  0  0  0  0
   38.9192   25.1975   37.5249 H   0  0  0  0  0  0  0  0  0  0  0  0
   38.1601   26.7957   37.8637 H   0  0  0  0  0  0  0  0  0  0  0  0
   39.4133   26.0243   39.4653 C   0  0  0  0  0  0  0  0  0  0  0  0
   38.9726   26.7244   40.2087 H   0  0  0  0  0  0  0  0  0  0  0  0
   40.3483   26.4818   39.0750 H   0  0  0  0  0  0  0  0  0  0  0  0
   38.5922   24.1505   40.6614 C   0  0  0  0  0  0  0  0  0  0  0  0
   38.9154   23.2120   41.1622 H   0  0  0  0  0  0  0  0  0  0  0  0
   38.1337   24.8100   41.4308 H   0  0  0  0  0  0  0  0  0  0  0  0
   37.5583   23.8171   39.5814 C   0  0  0  0  0  0  0  0  0  0  0  0
   36.6590   23.3652   40.0549 H   0  0  0  0  0  0  0  0  0  0  0  0
   37.9940   23.0733   38.8781 H   0  0  0  0  0  0  0  0  0  0  0  0
   30.3868   30.8971   32.1299 C   0  0  0  0  0  0  0  0  0  0  0  0
   29.1311   30.7908   31.6255 F   0  0  0  0  0  0  0  0  0  0  0  0
   39.7342   24.7955   40.1087 O   0  0  0  0  0  0  0  0  0  0  0  0
   33.7532   30.2172   37.0746 C   0  0  0  0  0  0  0  0  0  0  0  0
   30.5799   30.7665   33.5045 C   0  0  0  0  0  0  0  0  0  0  0  0
   29.7539   30.5910   34.1757 H   0  0  0  0  0  0  0  0  0  0  0  0
   35.4384   25.7176   37.1203 C   0  0  0  0  0  0  0  0  0  0  0  0
   37.1680   25.0860   38.8150 C   0  0  0  0  0  0  0  0  0  0  0  0
   36.6866   25.7457   39.5769 H   0  0  0  0  0  0  0  0  0  0  0  0
   33.8230   27.5696   35.9934 C   0  0  0  0  0  0  0  0  0  0  0  0
   33.0060   28.5413   35.4571 C   0  0  0  0  0  0  0  0  0  0  0  0
   32.4011   28.2834   34.5867 H   0  0  0  0  0  0  0  0  0  0  0  0
   31.4461   31.1302   31.2534 C   0  0  0  0  0  0  0  0  0  0  0  0
   31.2790   31.2250   30.1914 H   0  0  0  0  0  0  0  0  0  0  0  0
   32.7421   31.2514   31.7705 C   0  0  0  0  0  0  0  0  0  0  0  0
   33.5742   31.4426   31.1090 H   0  0  0  0  0  0  0  0  0  0  0  0
   32.9525   31.1307   33.1470 C   0  0  0  0  0  0  0  0  0  0  0  0
   33.9515   31.2296   33.5472 H   0  0  0  0  0  0  0  0  0  0  0  0
   34.6445   27.9192   37.1248 C   0  0  0  0  0  0  0  0  0  0  0  0
   33.8930   26.2629   35.4912 C   0  0  0  0  0  0  0  0  0  0  0  0
   33.2962   25.9694   34.6374 H   0  0  0  0  0  0  0  0  0  0  0  0
   32.9207   29.8375   35.9590 C   0  0  0  0  0  0  0  0  0  0  0  0
   31.8864   30.8636   34.0116 C   0  0  0  0  0  0  0  0  0  0  0  0
   35.4333   29.5559   38.7725 C   0  0  0  0  0  0  0  0  0  0  0  0
   35.3421   30.6089   39.1163 H   0  0  0  0  0  0  0  0  0  0  0  0
   36.5097   29.3946   38.5328 H   0  0  0  0  0  0  0  0  0  0  0  0
   35.1843   28.9154   39.6500 H   0  0  0  0  0  0  0  0  0  0  0  0
   32.1383   30.7912   35.3775 O   0  0  0  0  0  0  0  0  0  0  0  0
   34.6944   25.3364   36.0299 N   0  0  0  0  0  0  0  0  0  0  0  0
   33.7591   31.3517   37.5616 O   0  0  0  0  0  0  0  0  0  0  0  0
   34.5764   29.2229   37.6151 N   0  0  0  0  0  0  0  0  0  0  0  0
   35.4474   26.9693   37.6615 N   0  0  0  0  0  0  0  0  0  0  0  0
   36.2062   24.7659   37.7333 N   0  0  0  0  0  0  0  0  0  0  0  0
   36.3037   23.8711   37.2598 H   0  0  0  0  0  0  0  0  0  0  0  0
  1  2  1  0
  1  3  1  0
  1  4  1  0
  1 20  1  0
  4  5  1  0
  4  6  1  0
  4 15  1  0
  7  8  1  0
  7  9  1  0
  7 10  1  0
  7 15  1  0
 10 11  1  0
 10 12  1  0
 10 20  1  0
 13 14  1  0
 13 17  2  0
 13 25  1  0
 16 34  1  0
 16 42  2  0
 16 43  1  0
 17 18  1  0
 17 35  1  0
 19 41  1  0
 19 44  2  0
 19 45  1  0
 20 21  1  0
 20 45  1  0
 22 23  1  0
 22 31  2  0
 22 32  1  0
 23 24  1  0
 23 34  2  0
 25 26  1  0
 25 27  2  0
 27 28  1  0
 27 29  1  0
 29 30  1  0
 29 35  2  0
 31 43  1  0
 31 44  1  0
 32 33  1  0
 32 41  2  0
 34 40  1  0
 35 40  1  0
 36 37  1  0
 36 38  1  0
 36 39  1  0
 36 43  1  0
 45 46  1  0
M  END
> <intraLJ>
33.950    

> <intraEL>
-17.686   

> <intraDihe>
21.470    

> <interLJ>
0.000     

> <interEJ>
0.000     

> <gridLJ>
-8.550    

> <gridEL>
0.000     

> <totalE>
29.184    

> <LGFE>
-8.550  

> <LE>
-0.317  

> <SMILES>
Cn1c(=O)c(Oc2cccc(F)c2)cc2cnc(NC3CCOCC3)nc21

> <atom.dprop.GFE>
-0.5847 0.0000 0.0000 -0.3050 0.0000 0.0000 -0.4635 0.0000 0.0000 -0.5435 0.0000 0.0000 -0.1308 -1.5710 -0.4440 0.1382 -0.2331 0.0000 -0.0989 -0.5072 0.0000 -0.0645 0.0893 0.0000 0.0503 0.0000 -0.1570 0.0000 -0.1443 0.0000 -0.1465 -0.1186 0.0000 0.0711 -0.1733 -0.5305 0.0000 0.0000 0.0000 -1.0020 -1.1750 -0.2220 0.0130 0.1370 -0.4340 0.0000

> <atom.prop.CLASS>
PRPC NCLA NCLA PRPC NCLA NCLA PRPC NCLA NCLA PRPC NCLA NCLA BENC FLBX DMEO GEHC BENC NCLA GEHC PRPC NCLA BENC BENC NCLA BENC NCLA BENC NCLA BENC NCLA GEHC BENC NCLA BENC BENC PRPC NCLA NCLA NCLA DMEO IMIN FORO GEHC IMIN FORN NCLA

> <cluster_id>
1

> <rmsd_to_cluster_rep>
0.00    

> <ligRMSD>
1.46    

> <ligCOMD>
0.97    

$$$$
p38_goldstein_07_2g.C_352
     RDKit          3D

 46 49  0  0  0  0  0  0  0  0999 V2000
   36.0281   23.8983   40.5144 C   0  0  0  0  0  0  0  0  0  0  0  0
   36.5421   23.0617   39.9906 H   0  0  0  0  0  0  0  0  0  0  0  0
   36.4381   24.8551   40.1264 H   0  0  0  0  0  0  0  0  0  0  0  0
   36.3078   23.7890   42.0177 C   0  0  0  0  0  0  0  0  0  0  0  0
   35.8870   24.6758   42.5407 H   0  0  0  0  0  0  0  0  0  0  0  0
   37.4060   23.7781   42.1896 H   0  0  0  0  0  0  0  0  0  0  0  0
   34.3286   22.5471   42.4145 C   0  0  0  0  0  0  0  0  0  0  0  0
   33.9526   21.6109   42.8816 H   0  0  0  0  0  0  0  0  0  0  0  0
   33.8647   23.4066   42.9465 H   0  0  0  0  0  0  0  0  0  0  0  0
   33.9248   22.5725   40.9371 C   0  0  0  0  0  0  0  0  0  0  0  0
   32.8155   22.5817   40.8553 H   0  0  0  0  0  0  0  0  0  0  0  0
   34.3042   21.6521   40.4405 H   0  0  0  0  0  0  0  0  0  0  0  0
   31.5761   31.0314   33.3750 C   0  0  0  0  0  0  0  0  0  0  0  0
   30.5109   30.8553   33.3755 H   0  0  0  0  0  0  0  0  0  0  0  0
   35.7422   22.6048   42.5698 O   0  0  0  0  0  0  0  0  0  0  0  0
   34.7472   29.7156   37.7920 C   0  0  0  0  0  0  0  0  0  0  0  0
   32.3508   30.7574   34.5019 C   0  0  0  0  0  0  0  0  0  0  0  0
   34.2419   24.9440   38.0364 C   0  0  0  0  0  0  0  0  0  0  0  0
   34.5133   23.8102   40.2505 C   0  0  0  0  0  0  0  0  0  0  0  0
   34.0358   24.6790   40.7648 H   0  0  0  0  0  0  0  0  0  0  0  0
   34.2534   27.1931   36.5362 C   0  0  0  0  0  0  0  0  0  0  0  0
   34.2603   28.3654   35.8114 C   0  0  0  0  0  0  0  0  0  0  0  0
   34.0892   28.3079   34.7357 H   0  0  0  0  0  0  0  0  0  0  0  0
   32.1970   31.5449   32.2280 C   0  0  0  0  0  0  0  0  0  0  0  0
   33.5747   31.7919   32.2272 C   0  0  0  0  0  0  0  0  0  0  0  0
   34.0481   32.1983   31.3449 H   0  0  0  0  0  0  0  0  0  0  0  0
   34.3403   31.5219   33.3642 C   0  0  0  0  0  0  0  0  0  0  0  0
   35.4024   31.7196   33.3608 H   0  0  0  0  0  0  0  0  0  0  0  0
   34.4995   27.2685   37.9543 C   0  0  0  0  0  0  0  0  0  0  0  0
   34.0228   25.9360   35.9609 C   0  0  0  0  0  0  0  0  0  0  0  0
   33.8434   25.8425   34.8978 H   0  0  0  0  0  0  0  0  0  0  0  0
   34.4781   29.6186   36.3788 C   0  0  0  0  0  0  0  0  0  0  0  0
   33.7374   30.9780   34.5027 C   0  0  0  0  0  0  0  0  0  0  0  0
   34.9899   28.5692   39.9753 C   0  0  0  0  0  0  0  0  0  0  0  0
   35.1768   29.5915   40.3695 H   0  0  0  0  0  0  0  0  0  0  0  0
   35.8825   27.9591   40.2457 H   0  0  0  0  0  0  0  0  0  0  0  0
   34.1212   28.1658   40.5452 H   0  0  0  0  0  0  0  0  0  0  0  0
   31.7257   30.2756   35.6106 F   0  0  0  0  0  0  0  0  0  0  0  0
   31.6098   31.7585   31.3471 H   0  0  0  0  0  0  0  0  0  0  0  0
   34.5230   30.7570   35.6308 O   0  0  0  0  0  0  0  0  0  0  0  0
   34.0241   24.8112   36.6863 N   0  0  0  0  0  0  0  0  0  0  0  0
   34.9737   30.7842   38.3672 O   0  0  0  0  0  0  0  0  0  0  0  0
   34.7357   28.5210   38.5201 N   0  0  0  0  0  0  0  0  0  0  0  0
   34.4932   26.1220   38.6756 N   0  0  0  0  0  0  0  0  0  0  0  0
   34.1717   23.8169   38.8082 N   0  0  0  0  0  0  0  0  0  0  0  0
   34.1340   22.9232   38.3242 H   0  0  0  0  0  0  0  0  0  0  0  0
  1  2  1  0
  1  3  1  0
  1  4  1  0
  1 19  1  0
  4  5  1  0
  4  6  1  0
  4 15  1  0
  7  8  1  0
  7  9  1  0
  7 10  1  0
  7 15  1  0
 10 11  1  0
 10 12  1  0
 10 19  1  0
 13 14  1  0
 13 17  2  0
 13 24  1  0
 16 32  1  0
 16 42  2  0
 16 43  1  0
 17 33  1  0
 17 38  1  0
 18 41  1  0
 18 44  2  0
 18 45  1  0
 19 20  1  0
 19 45  1  0
 21 22  1  0
 21 29  2  0
 21 30  1  0
 22 23  1  0
 22 32  2  0
 24 25  2  0
 24 39  1  0
 25 26  1  0
 25 27  1  0
 27 28  1  0
 27 33  2  0
 29 43  1  0
 29 44  1  0
 30 31  1  0
 30 41  2  0
 32 40  1  0
 33 40  1  0
 34 35  1  0
 34 36  1  0
 34 37  1  0
 34 43  1  0
 45 46  1  0
M  END
> <intraLJ>
34.407    

> <intraEL>
-14.930   

> <intraDihe>
20.183    

> <interLJ>
0.000     

> <interEJ>
0.000     

> <gridLJ>
-9.445    

> <gridEL>
0.000     

> <totalE>
30.216    

> <LGFE>
-9.445  

> <LE>
-0.350  

> <SMILES>
Cn1c(=O)c(Oc2ccccc2F)cc2cnc(NC3CCOCC3)nc21

> <atom.dprop.GFE>
-0.2368 0.0000 0.0000 -0.0693 0.0000 0.0000 -0.3207 0.0000 0.0000 -0.3403 0.0000 0.0000 -0.1551 0.0000 -1.0130 -0.0596 -0.2144 -0.0226 -0.3114 0.0000 -0.0645 0.0114 0.0000 -0.1570 -0.0217 0.0000 0.0120 0.0000 -0.1795 -0.1117 0.0000 0.0768 -0.1231 -0.5408 0.0000 0.0000 0.0000 -2.0180 0.0000 -1.3430 -1.1750 -0.2740 -0.0676 -0.2210 -0.5050 0.0000

> <atom.prop.CLASS>
PRPC NCLA NCLA PRPC NCLA NCLA PRPC NCLA NCLA PRPC NCLA NCLA BENC NCLA DMEO GEHC BENC GEHC PRPC NCLA BENC BENC NCLA BENC BENC NCLA BENC NCLA GEHC BENC NCLA BENC BENC PRPC NCLA NCLA NCLA FLBX NCLA DMEO IMIN FORO GEHC IMIN FORN NCLA

> <cluster_id>
1

> <rmsd_to_cluster_rep>
0.00    

> <ligRMSD>
1.74    

> <ligCOMD>
1.21    

$$$$
p38_goldstein_08_2h.C_1126
     RDKit          3D

 46 49  0  0  0  0  0  0  0  0999 V2000
   36.7478   24.5280   40.2287 C   0  0  0  0  0  0  0  0  0  0  0  0
   37.2421   23.6043   39.8546 H   0  0  0  0  0  0  0  0  0  0  0  0
   37.0829   25.3783   39.5977 H   0  0  0  0  0  0  0  0  0  0  0  0
   37.1885   24.7709   41.6803 C   0  0  0  0  0  0  0  0  0  0  0  0
   36.8082   25.7583   42.0230 H   0  0  0  0  0  0  0  0  0  0  0  0
   38.2987   24.7959   41.7298 H   0  0  0  0  0  0  0  0  0  0  0  0
   35.2897   23.6809   42.5630 C   0  0  0  0  0  0  0  0  0  0  0  0
   34.9734   22.9068   43.2952 H   0  0  0  0  0  0  0  0  0  0  0  0
   34.8694   24.6568   42.8919 H   0  0  0  0  0  0  0  0  0  0  0  0
   34.7450   23.3218   41.1747 C   0  0  0  0  0  0  0  0  0  0  0  0
   33.6337   23.2969   41.2085 H   0  0  0  0  0  0  0  0  0  0  0  0
   35.1092   22.3103   40.8899 H   0  0  0  0  0  0  0  0  0  0  0  0
   30.6972   31.7167   33.2763 C   0  0  0  0  0  0  0  0  0  0  0  0
   29.9637   32.3270   33.7808 H   0  0  0  0  0  0  0  0  0  0  0  0
   36.7099   23.7566   42.5556 O   0  0  0  0  0  0  0  0  0  0  0  0
   34.6324   29.5531   36.4266 C   0  0  0  0  0  0  0  0  0  0  0  0
   31.8932   31.3682   33.9016 C   0  0  0  0  0  0  0  0  0  0  0  0
   34.7413   24.9367   37.7484 C   0  0  0  0  0  0  0  0  0  0  0  0
   35.2152   24.3532   40.1386 C   0  0  0  0  0  0  0  0  0  0  0  0
   34.7566   25.3156   40.4733 H   0  0  0  0  0  0  0  0  0  0  0  0
   34.6257   26.7622   35.7619 C   0  0  0  0  0  0  0  0  0  0  0  0
   34.5479   27.7233   34.7844 C   0  0  0  0  0  0  0  0  0  0  0  0
   34.4709   27.4109   33.7417 H   0  0  0  0  0  0  0  0  0  0  0  0
   30.4607   31.2842   31.9634 C   0  0  0  0  0  0  0  0  0  0  0  0
   29.5459   31.5621   31.4614 H   0  0  0  0  0  0  0  0  0  0  0  0
   31.3978   30.4761   31.3096 C   0  0  0  0  0  0  0  0  0  0  0  0
   31.2074   30.1385   30.3009 H   0  0  0  0  0  0  0  0  0  0  0  0
   32.5854   30.1156   31.9473 C   0  0  0  0  0  0  0  0  0  0  0  0
   33.3102   29.5149   31.4150 H   0  0  0  0  0  0  0  0  0  0  0  0
   34.7260   27.1945   37.1345 C   0  0  0  0  0  0  0  0  0  0  0  0
   34.6170   25.3896   35.4839 C   0  0  0  0  0  0  0  0  0  0  0  0
   34.5590   25.0348   34.4631 H   0  0  0  0  0  0  0  0  0  0  0  0
   34.5395   29.0759   35.0678 C   0  0  0  0  0  0  0  0  0  0  0  0
   32.8454   30.5817   33.2395 C   0  0  0  0  0  0  0  0  0  0  0  0
   34.8493   28.9853   38.8169 C   0  0  0  0  0  0  0  0  0  0  0  0
   34.8715   30.0862   38.9683 H   0  0  0  0  0  0  0  0  0  0  0  0
   35.7850   28.5887   39.2744 H   0  0  0  0  0  0  0  0  0  0  0  0
   33.9922   28.6020   39.4171 H   0  0  0  0  0  0  0  0  0  0  0  0
   32.0984   31.7876   35.1826 F   0  0  0  0  0  0  0  0  0  0  0  0
   34.4525   30.2967   33.8325 S   0  0  0  0  0  0  0  0  0  0  0  0
   34.6822   24.4711   36.4549 N   0  0  0  0  0  0  0  0  0  0  0  0
   34.6410   30.7458   36.7548 O   0  0  0  0  0  0  0  0  0  0  0  0
   34.7343   28.5654   37.4054 N   0  0  0  0  0  0  0  0  0  0  0  0
   34.7899   26.2528   38.1025 N   0  0  0  0  0  0  0  0  0  0  0  0
   34.7249   24.0228   38.7700 N   0  0  0  0  0  0  0  0  0  0  0  0
   34.6789   23.0414   38.5069 H   0  0  0  0  0  0  0  0  0  0  0  0
  1  2  1  0
  1  3  1  0
  1  4  1  0
  1 19  1  0
  4  5  1  0
  4  6  1  0
  4 15  1  0
  7  8  1  0
  7  9  1  0
  7 10  1  0
  7 15  1  0
 10 11  1  0
 10 12  1  0
 10 19  1  0
 13 14  1  0
 13 17  2  0
 13 24  1  0
 16 33  1  0
 16 42  2  0
 16 43  1  0
 17 34  1  0
 17 39  1  0
 18 41  1  0
 18 44  2  0
 18 45  1  0
 19 20  1  0
 19 45  1  0
 21 22  1  0
 21 30  2  0
 21 31  1  0
 22 23  1  0
 22 33  2  0
 24 25  1  0
 24 26  2  0
 26 27  1  0
 26 28  1  0
 28 29  1  0
 28 34  2  0
 30 43  1  0
 30 44  1  0
 31 32  1  0
 31 41  2  0
 33 40  1  0
 34 40  1  0
 35 36  1  0
 35 37  1  0
 35 38  1  0
 35 43  1  0
 45 46  1  0
M  END
> <intraLJ>
33.496    

> <intraEL>
-14.988   

> <intraDihe>
18.443    

> <interLJ>
0.000     

> <interEJ>
0.000     

> <gridLJ>
-7.439    

> <gridEL>
0.000     

> <totalE>
29.513    

> <LGFE>
-7.439  

> <LE>
-0.276  

> <SMILES>
Cn1c(=O)c(Sc2ccccc2F)cc2cnc(NC3CCOCC3)nc21

> <atom.dprop.GFE>
-0.4209 0.0000 0.0000 -0.1658 0.0000 0.0000 -0.1712 0.0000 0.0000 -0.3283 0.0000 0.0000 -0.1526 0.0000 -0.5820 -0.0190 -0.1733 -0.1622 -0.1991 0.0000 -0.1186 -0.0053 0.0000 -0.1308 0.0000 0.0361 0.0000 -0.0499 0.0000 -0.1732 -0.1010 0.0000 0.0616 -0.1179 -0.5305 0.0000 0.0000 0.0000 -1.3790 -0.2611 -1.0790 -0.5900 -0.1465 0.0260 -0.5050 0.0000

> <atom.prop.CLASS>
PRPC NCLA NCLA PRPC NCLA NCLA PRPC NCLA NCLA PRPC NCLA NCLA BENC NCLA DMEO GEHC BENC GEHC PRPC NCLA BENC BENC NCLA BENC NCLA BENC NCLA BENC NCLA GEHC BENC NCLA BENC BENC PRPC NCLA NCLA NCLA FLBX PRPC IMIN FORO GEHC IMIN FORN NCLA

> <cluster_id>
1

> <rmsd_to_cluster_rep>
0.00    

> <ligRMSD>
1.54    

> <ligCOMD>
1.14    

$$$$
p38_goldstein_09_2i.C_473
     RDKit          3D

 48 51  0  0  0  0  0  0  0  0999 V2000
   37.7463   25.0816   38.7175 C   0  0  0  0  0  0  0  0  0  0  0  0
   38.1133   24.3155   37.9990 H   0  0  0  0  0  0  0  0  0  0  0  0
   37.7541   26.0680   38.2067 H   0  0  0  0  0  0  0  0  0  0  0  0
   38.6913   25.1216   39.9259 C   0  0  0  0  0  0  0  0  0  0  0  0
   38.4013   25.9596   40.5973 H   0  0  0  0  0  0  0  0  0  0  0  0
   39.7305   25.3058   39.5769 H   0  0  0  0  0  0  0  0  0  0  0  0
   37.3631   23.6056   41.1651 C   0  0  0  0  0  0  0  0  0  0  0  0
   37.4112   22.6613   41.7497 H   0  0  0  0  0  0  0  0  0  0  0  0
   37.0422   24.4190   41.8524 H   0  0  0  0  0  0  0  0  0  0  0  0
   36.3417   23.4498   40.0333 C   0  0  0  0  0  0  0  0  0  0  0  0
   35.3340   23.2655   40.4666 H   0  0  0  0  0  0  0  0  0  0  0  0
   36.6198   22.5719   39.4092 H   0  0  0  0  0  0  0  0  0  0  0  0
   29.8115   30.6229   33.4931 C   0  0  0  0  0  0  0  0  0  0  0  0
   28.8598   30.2298   33.8174 H   0  0  0  0  0  0  0  0  0  0  0  0
   38.6591   23.9013   40.6579 O   0  0  0  0  0  0  0  0  0  0  0  0
   34.4555   30.3723   36.8013 C   0  0  0  0  0  0  0  0  0  0  0  0
   30.9075   30.6531   34.3520 C   0  0  0  0  0  0  0  0  0  0  0  0
   34.9515   25.6229   37.2753 C   0  0  0  0  0  0  0  0  0  0  0  0
   36.3172   24.7147   39.1663 C   0  0  0  0  0  0  0  0  0  0  0  0
   35.9719   25.5237   39.8550 H   0  0  0  0  0  0  0  0  0  0  0  0
   34.0215   27.7118   35.8421 C   0  0  0  0  0  0  0  0  0  0  0  0
   33.5586   28.8033   35.1475 C   0  0  0  0  0  0  0  0  0  0  0  0
   33.0227   28.6375   34.2114 H   0  0  0  0  0  0  0  0  0  0  0  0
   29.9528   31.1221   32.1910 C   0  0  0  0  0  0  0  0  0  0  0  0
   29.1106   31.1091   31.5152 H   0  0  0  0  0  0  0  0  0  0  0  0
   31.1827   31.6354   31.7641 C   0  0  0  0  0  0  0  0  0  0  0  0
   31.2863   32.0201   30.7596 H   0  0  0  0  0  0  0  0  0  0  0  0
   32.2742   31.6632   32.6323 C   0  0  0  0  0  0  0  0  0  0  0  0
   33.2142   32.0793   32.3001 H   0  0  0  0  0  0  0  0  0  0  0  0
   34.7342   27.9426   37.0737 C   0  0  0  0  0  0  0  0  0  0  0  0
   33.8396   26.3943   35.4031 C   0  0  0  0  0  0  0  0  0  0  0  0
   33.3205   26.1895   34.4758 H   0  0  0  0  0  0  0  0  0  0  0  0
   33.7379   30.1093   35.5812 C   0  0  0  0  0  0  0  0  0  0  0  0
   32.1417   31.1758   33.9383 C   0  0  0  0  0  0  0  0  0  0  0  0
   35.6547   29.4727   38.7626 C   0  0  0  0  0  0  0  0  0  0  0  0
   35.7724   30.5408   39.0468 H   0  0  0  0  0  0  0  0  0  0  0  0
   36.6833   29.0483   38.7010 H   0  0  0  0  0  0  0  0  0  0  0  0
   35.1357   28.9761   39.6147 H   0  0  0  0  0  0  0  0  0  0  0  0
   30.7479   30.1879   35.6225 F   0  0  0  0  0  0  0  0  0  0  0  0
   33.2826   31.3456   34.8830 C   0  0  0  0  0  0  0  0  0  0  0  0
   34.1624   31.7717   34.3499 H   0  0  0  0  0  0  0  0  0  0  0  0
   32.9450   32.0820   35.6463 H   0  0  0  0  0  0  0  0  0  0  0  0
   34.3045   25.3478   36.0943 N   0  0  0  0  0  0  0  0  0  0  0  0
   34.6656   31.5082   37.2377 O   0  0  0  0  0  0  0  0  0  0  0  0
   34.9188   29.2585   37.5001 N   0  0  0  0  0  0  0  0  0  0  0  0
   35.1939   26.8731   37.7632 N   0  0  0  0  0  0  0  0  0  0  0  0
   35.3597   24.5655   38.0410 N   0  0  0  0  0  0  0  0  0  0  0  0
   35.2214   23.6348   37.6550 H   0  0  0  0  0  0  0  0  0  0  0  0
  1  2  1  0
  1  3  1  0
  1  4  1  0
  1 19  1  0
  4  5  1  0
  4  6  1  0
  4 15  1  0
  7  8  1  0
  7  9  1  0
  7 10  1  0
  7 15  1  0
 10 11  1  0
 10 12  1  0
 10 19  1  0
 13 14  1  0
 13 17  2  0
 13 24  1  0
 16 33  1  0
 16 44  2  0
 16 45  1  0
 17 34  1  0
 17 39  1  0
 18 43  1  0
 18 46  2  0
 18 47  1  0
 19 20  1  0
 19 47  1  0
 21 22  1  0
 21 30  2  0
 21 31  1  0
 22 23  1  0
 22 33  2  0
 24 25  1  0
 24 26  2  0
 26 27  1  0
 26 28  1  0
 28 29  1  0
 28 34  2  0
 30 45  1  0
 30 46  1  0
 31 32  1  0
 31 43  2  0
 33 40  1  0
 34 40  1  0
 35 36  1  0
 35 37  1  0
 35 38  1  0
 35 45  1  0
 40 41  1  0
 40 42  1  0
 47 48  1  0
M  END
> <intraLJ>
35.813    

> <intraEL>
-16.925   

> <intraDihe>
17.366    

> <interLJ>
0.000     

> <interEJ>
0.000     

> <gridLJ>
-8.372    

> <gridEL>
0.000     

> <totalE>
27.882    

> <LGFE>
-8.372  

> <LE>
-0.310  

> <SMILES>
Cn1c(=O)c(Cc2ccccc2F)cc2cnc(NC3CCOCC3)nc21

> <atom.dprop.GFE>
-0.6580 0.0000 0.0000 -0.4466 0.0000 0.0000 -0.1029 0.0000 0.0000 -0.1712 0.0000 0.0000 -0.2331 0.0000 -0.9470 0.1382 -0.2004 -0.0989 -0.2667 0.0000 -0.0645 -0.0007 0.0000 -0.1308 0.0000 -0.1972 0.0000 -0.1570 0.0000 -0.1465 -0.1186 0.0000 -0.0538 -0.1733 -0.5305 0.0000 0.0000 0.0000 -2.0180 -0.1512 0.0000 0.0000 -1.1750 -0.2220 0.0403 -0.2720 -0.0150 0.0000

> <atom.prop.CLASS>
PRPC NCLA NCLA PRPC NCLA NCLA PRPC NCLA NCLA PRPC NCLA NCLA BENC NCLA DMEO GEHC BENC GEHC PRPC NCLA BENC BENC NCLA BENC NCLA BENC NCLA BENC NCLA GEHC BENC NCLA BENC BENC PRPC NCLA NCLA NCLA FLBX PRPC NCLA NCLA IMIN FORO GEHC IMIN FORN NCLA

> <cluster_id>
1

> <rmsd_to_cluster_rep>
0.00    

> <ligRMSD>
1.06    

> <ligCOMD>
0.97    

$$$$
p38_goldstein_10_2j.C_736
     RDKit          3D

 48 51  0  0  0  0  0  0  0  0999 V2000
   37.7874   25.1176   38.9259 C   0  0  0  0  0  0  0  0  0  0  0  0
   38.2280   24.4608   38.1433 H   0  0  0  0  0  0  0  0  0  0  0  0
   37.7335   26.1508   38.5215 H   0  0  0  0  0  0  0  0  0  0  0  0
   38.6972   25.0964   40.1614 C   0  0  0  0  0  0  0  0  0  0  0  0
   38.3288   25.8345   40.9073 H   0  0  0  0  0  0  0  0  0  0  0  0
   39.7277   25.3914   39.8670 H   0  0  0  0  0  0  0  0  0  0  0  0
   37.4574   23.3641   41.1916 C   0  0  0  0  0  0  0  0  0  0  0  0
   37.5625   22.3684   41.6745 H   0  0  0  0  0  0  0  0  0  0  0  0
   37.0599   24.0736   41.9503 H   0  0  0  0  0  0  0  0  0  0  0  0
   36.4779   23.2575   40.0178 C   0  0  0  0  0  0  0  0  0  0  0  0
   35.4767   22.9558   40.3971 H   0  0  0  0  0  0  0  0  0  0  0  0
   36.8358   22.4738   39.3141 H   0  0  0  0  0  0  0  0  0  0  0  0
   30.3117   30.7422   33.1380 C   0  0  0  0  0  0  0  0  0  0  0  0
   29.3075   30.3609   33.2368 H   0  0  0  0  0  0  0  0  0  0  0  0
   38.7393   23.8056   40.7598 O   0  0  0  0  0  0  0  0  0  0  0  0
   34.4852   30.3566   37.1854 C   0  0  0  0  0  0  0  0  0  0  0  0
   31.1896   30.7589   34.2197 C   0  0  0  0  0  0  0  0  0  0  0  0
   35.0715   25.5991   37.4014 C   0  0  0  0  0  0  0  0  0  0  0  0
   36.3796   24.6029   39.2884 C   0  0  0  0  0  0  0  0  0  0  0  0
   35.9582   25.3066   40.0468 H   0  0  0  0  0  0  0  0  0  0  0  0
   34.1698   27.7512   36.0461 C   0  0  0  0  0  0  0  0  0  0  0  0
   33.7188   28.8728   35.3932 C   0  0  0  0  0  0  0  0  0  0  0  0
   33.2424   28.7532   34.4187 H   0  0  0  0  0  0  0  0  0  0  0  0
   30.7764   31.2460   31.9233 C   0  0  0  0  0  0  0  0  0  0  0  0
   32.0629   31.7459   31.7648 C   0  0  0  0  0  0  0  0  0  0  0  0
   32.3963   32.1314   30.8126 H   0  0  0  0  0  0  0  0  0  0  0  0
   32.9271   31.7562   32.8571 C   0  0  0  0  0  0  0  0  0  0  0  0
   33.9235   32.1602   32.7497 H   0  0  0  0  0  0  0  0  0  0  0  0
   34.8084   27.9215   37.3272 C   0  0  0  0  0  0  0  0  0  0  0  0
   34.0441   26.4594   35.5199 C   0  0  0  0  0  0  0  0  0  0  0  0
   33.5810   26.3005   34.5547 H   0  0  0  0  0  0  0  0  0  0  0  0
   33.8404   30.1531   35.9143 C   0  0  0  0  0  0  0  0  0  0  0  0
   32.4911   31.2664   34.0928 C   0  0  0  0  0  0  0  0  0  0  0  0
   35.5988   29.3649   39.1528 C   0  0  0  0  0  0  0  0  0  0  0  0
   35.6749   30.4160   39.5062 H   0  0  0  0  0  0  0  0  0  0  0  0
   36.6392   28.9668   39.1230 H   0  0  0  0  0  0  0  0  0  0  0  0
   35.0468   28.8066   39.9437 H   0  0  0  0  0  0  0  0  0  0  0  0
   30.7463   30.2932   35.4207 F   0  0  0  0  0  0  0  0  0  0  0  0
   29.9519   31.2523   30.8493 F   0  0  0  0  0  0  0  0  0  0  0  0
   33.3941   31.4199   35.2684 C   0  0  0  0  0  0  0  0  0  0  0  0
   34.3082   31.9874   34.9810 H   0  0  0  0  0  0  0  0  0  0  0  0
   32.8300   32.0218   36.0158 H   0  0  0  0  0  0  0  0  0  0  0  0
   34.4961   25.3829   36.1722 N   0  0  0  0  0  0  0  0  0  0  0  0
   34.6437   31.4681   37.6995 O   0  0  0  0  0  0  0  0  0  0  0  0
   34.9374   29.2125   37.8410 N   0  0  0  0  0  0  0  0  0  0  0  0
   35.2563   26.8220   37.9760 N   0  0  0  0  0  0  0  0  0  0  0  0
   35.4638   24.5059   38.1236 N   0  0  0  0  0  0  0  0  0  0  0  0
   35.3483   23.5960   37.6844 H   0  0  0  0  0  0  0  0  0  0  0  0
  1  2  1  0
  1  3  1  0
  1  4  1  0
  1 19  1  0
  4  5  1  0
  4  6  1  0
  4 15  1  0
  7  8  1  0
  7  9  1  0
  7 10  1  0
  7 15  1  0
 10 11  1  0
 10 12  1  0
 10 19  1  0
 13 14  1  0
 13 17  2  0
 13 24  1  0
 16 32  1  0
 16 44  2  0
 16 45  1  0
 17 33  1  0
 17 38  1  0
 18 43  1  0
 18 46  2  0
 18 47  1  0
 19 20  1  0
 19 47  1  0
 21 22  1  0
 21 29  2  0
 21 30  1  0
 22 23  1  0
 22 32  2  0
 24 25  2  0
 24 39  1  0
 25 26  1  0
 25 27  1  0
 27 28  1  0
 27 33  2  0
 29 45  1  0
 29 46  1  0
 30 31  1  0
 30 43  2  0
 32 40  1  0
 33 40  1  0
 34 35  1  0
 34 36  1  0
 34 37  1  0
 34 45  1  0
 40 41  1  0
 40 42  1  0
 47 48  1  0
M  END
> <intraLJ>
34.539    

> <intraEL>
-17.851   

> <intraDihe>
17.325    

> <interLJ>
0.000     

> <interEJ>
0.000     

> <gridLJ>
-9.930    

> <gridEL>
0.000     

> <totalE>
24.084    

> <LGFE>
-9.930  

> <LE>
-0.355  

> <SMILES>
Cn1c(=O)c(Cc2ccc(F)cc2F)cc2cnc(NC3CCOCC3)nc21

> <atom.dprop.GFE>
-0.6200 0.0000 0.0000 -0.4466 0.0000 0.0000 -0.1029 0.0000 0.0000 -0.1712 0.0000 0.0000 -0.2331 0.0000 -0.9470 0.1382 -0.2004 -0.0989 -0.2667 0.0000 -0.0645 -0.0007 0.0000 -0.1972 -0.1570 0.0000 -0.1443 0.0000 -0.0360 -0.1186 0.0000 0.0949 -0.1733 -0.5305 0.0000 0.0000 0.0000 -2.0180 -1.7410 -0.1512 0.0000 0.0000 -1.1750 -0.2220 -0.0596 -0.2720 -0.0150 0.0000

> <atom.prop.CLASS>
PRPC NCLA NCLA PRPC NCLA NCLA PRPC NCLA NCLA PRPC NCLA NCLA BENC NCLA DMEO GEHC BENC GEHC PRPC NCLA BENC BENC NCLA BENC BENC NCLA BENC NCLA GEHC BENC NCLA BENC BENC PRPC NCLA NCLA NCLA FLBX FLBX PRPC NCLA NCLA IMIN FORO GEHC IMIN FORN NCLA

> <cluster_id>
1

> <rmsd_to_cluster_rep>
0.00    

> <ligRMSD>
0.85    

> <ligCOMD>
0.73    

$$$$
p38_goldstein_11_2k.C_675
     RDKit          3D

 43 46  0  0  0  0  0  0  0  0999 V2000
   36.2800   24.0523   40.2323 C   0  0  0  0  0  0  0  0  0  0  0  0
   36.7029   23.1912   39.6684 H   0  0  0  0  0  0  0  0  0  0  0  0
   36.6206   24.9893   39.7421 H   0  0  0  0  0  0  0  0  0  0  0  0
   36.7996   24.0055   41.6735 C   0  0  0  0  0  0  0  0  0  0  0  0
   36.4670   24.9153   42.2199 H   0  0  0  0  0  0  0  0  0  0  0  0
   37.9112   23.9967   41.6656 H   0  0  0  0  0  0  0  0  0  0  0  0
   34.9137   22.7891   42.4372 C   0  0  0  0  0  0  0  0  0  0  0  0
   34.6211   21.8742   42.9969 H   0  0  0  0  0  0  0  0  0  0  0  0
   34.5394   23.6713   43.0016 H   0  0  0  0  0  0  0  0  0  0  0  0
   34.2758   22.7556   41.0449 C   0  0  0  0  0  0  0  0  0  0  0  0
   33.1679   22.7659   41.1432 H   0  0  0  0  0  0  0  0  0  0  0  0
   34.5724   21.8142   40.5314 H   0  0  0  0  0  0  0  0  0  0  0  0
   30.9462   30.9392   33.5378 C   0  0  0  0  0  0  0  0  0  0  0  0
   29.8944   30.7929   33.7282 H   0  0  0  0  0  0  0  0  0  0  0  0
   36.3336   22.8480   42.3591 O   0  0  0  0  0  0  0  0  0  0  0  0
   34.7389   29.7151   37.4164 C   0  0  0  0  0  0  0  0  0  0  0  0
   31.9015   30.6819   34.5219 C   0  0  0  0  0  0  0  0  0  0  0  0
   34.1620   24.9985   38.0227 C   0  0  0  0  0  0  0  0  0  0  0  0
   34.7430   23.9621   40.2232 C   0  0  0  0  0  0  0  0  0  0  0  0
   34.3546   24.8536   40.7725 H   0  0  0  0  0  0  0  0  0  0  0  0
   34.0090   27.1501   36.3932 C   0  0  0  0  0  0  0  0  0  0  0  0
   33.9417   28.2809   35.6042 C   0  0  0  0  0  0  0  0  0  0  0  0
   33.6202   28.1699   34.5682 H   0  0  0  0  0  0  0  0  0  0  0  0
   31.3973   31.3922   32.2979 C   0  0  0  0  0  0  0  0  0  0  0  0
   32.7460   31.6038   32.0318 C   0  0  0  0  0  0  0  0  0  0  0  0
   33.0717   31.9647   31.0675 H   0  0  0  0  0  0  0  0  0  0  0  0
   33.6869   31.3480   33.0313 C   0  0  0  0  0  0  0  0  0  0  0  0
   34.7375   31.5122   32.8399 H   0  0  0  0  0  0  0  0  0  0  0  0
   34.4568   27.2996   37.7537 C   0  0  0  0  0  0  0  0  0  0  0  0
   33.6690   25.8698   35.9383 C   0  0  0  0  0  0  0  0  0  0  0  0
   33.3367   25.7183   34.9196 H   0  0  0  0  0  0  0  0  0  0  0  0
   34.2694   29.5570   36.0633 C   0  0  0  0  0  0  0  0  0  0  0  0
   33.2716   30.8610   34.2732 C   0  0  0  0  0  0  0  0  0  0  0  0
   31.4700   30.2528   35.7393 F   0  0  0  0  0  0  0  0  0  0  0  0
   30.4968   31.6369   31.3137 F   0  0  0  0  0  0  0  0  0  0  0  0
   34.2344   30.6523   35.2559 O   0  0  0  0  0  0  0  0  0  0  0  0
   33.7487   24.7922   36.7275 N   0  0  0  0  0  0  0  0  0  0  0  0
   35.0785   30.7896   37.9171 O   0  0  0  0  0  0  0  0  0  0  0  0
   34.7978   28.5680   38.1881 N   0  0  0  0  0  0  0  0  0  0  0  0
   35.1192   28.6631   39.1391 H   0  0  0  0  0  0  0  0  0  0  0  0
   34.5312   26.2074   38.5471 N   0  0  0  0  0  0  0  0  0  0  0  0
   34.1734   23.9147   38.8573 N   0  0  0  0  0  0  0  0  0  0  0  0
   34.0212   23.0012   38.4367 H   0  0  0  0  0  0  0  0  0  0  0  0
  1  2  1  0
  1  3  1  0
  1  4  1  0
  1 19  1  0
  4  5  1  0
  4  6  1  0
  4 15  1  0
  7  8  1  0
  7  9  1  0
  7 10  1  0
  7 15  1  0
 10 11  1  0
 10 12  1  0
 10 19  1  0
 13 14  1  0
 13 17  2  0
 13 24  1  0
 16 32  1  0
 16 38  2  0
 16 39  1  0
 17 33  1  0
 17 34  1  0
 18 37  1  0
 18 41  2  0
 18 42  1  0
 19 20  1  0
 19 42  1  0
 21 22  1  0
 21 29  2  0
 21 30  1  0
 22 23  1  0
 22 32  2  0
 24 25  2  0
 24 35  1  0
 25 26  1  0
 25 27  1  0
 27 28  1  0
 27 33  2  0
 29 39  1  0
 29 41  1  0
 30 31  1  0
 30 37  2  0
 32 36  1  0
 33 36  1  0
 39 40  1  0
 42 43  1  0
M  END
> <intraLJ>
31.575    

> <intraEL>
-19.711   

> <intraDihe>
18.942    

> <interLJ>
0.000     

> <interEJ>
0.000     

> <gridLJ>
-10.546   

> <gridEL>
0.000     

> <totalE>
20.260    

> <LGFE>
-10.546 

> <LE>
-0.391  

> <SMILES>
O=c1[nH]c2nc(NC3CCOCC3)ncc2cc1Oc1ccc(F)cc1F

> <atom.dprop.GFE>
-0.2368 0.0000 0.0000 -0.1658 0.0000 0.0000 -0.1975 0.0000 0.0000 -0.3403 0.0000 0.0000 -0.1551 0.0000 -0.5820 0.0130 -0.2144 -0.0226 -0.3114 0.0000 -0.0645 0.0977 0.0000 -0.1972 -0.1570 0.0000 -0.1443 0.0000 -0.1732 -0.0872 0.0000 0.0768 -0.1231 -2.0180 -1.7410 -1.3430 -1.1750 -0.2740 -0.2840 0.0000 -0.2210 -0.5050 0.0000

> <atom.prop.CLASS>
PRPC NCLA NCLA PRPC NCLA NCLA PRPC NCLA NCLA PRPC NCLA NCLA BENC NCLA DMEO GEHC BENC GEHC PRPC NCLA BENC BENC NCLA BENC BENC NCLA BENC NCLA GEHC BENC NCLA BENC BENC FLBX FLBX DMEO IMIN FORO IMIH NCLA IMIN FORN NCLA

> <cluster_id>
1

> <rmsd_to_cluster_rep>
0.00    

> <ligRMSD>
1.46    

> <ligCOMD>
1.20    

$$$$
p38_goldstein_12_2l.C_1177
     RDKit          3D

 49 52  0  0  0  0  0  0  0  0999 V2000
   36.4727   24.1071   40.2170 C   0  0  0  0  0  0  0  0  0  0  0  0
   36.9387   23.3078   39.5991 H   0  0  0  0  0  0  0  0  0  0  0  0
   36.7353   25.0891   39.7690 H   0  0  0  0  0  0  0  0  0  0  0  0
   37.0382   24.0246   41.6418 C   0  0  0  0  0  0  0  0  0  0  0  0
   36.6672   24.8861   42.2395 H   0  0  0  0  0  0  0  0  0  0  0  0
   38.1474   24.0865   41.6034 H   0  0  0  0  0  0  0  0  0  0  0  0
   35.2546   22.6689   42.3998 C   0  0  0  0  0  0  0  0  0  0  0  0
   35.0299   21.7205   42.9344 H   0  0  0  0  0  0  0  0  0  0  0  0
   34.8472   23.5087   43.0046 H   0  0  0  0  0  0  0  0  0  0  0  0
   34.5806   22.6467   41.0229 C   0  0  0  0  0  0  0  0  0  0  0  0
   33.4778   22.5816   41.1519 H   0  0  0  0  0  0  0  0  0  0  0  0
   34.9208   21.7458   40.4661 H   0  0  0  0  0  0  0  0  0  0  0  0
   30.8924   30.7923   33.5199 C   0  0  0  0  0  0  0  0  0  0  0  0
   29.8428   30.5683   33.6307 H   0  0  0  0  0  0  0  0  0  0  0  0
   36.6656   22.8115   42.2863 O   0  0  0  0  0  0  0  0  0  0  0  0
   34.5723   29.7747   37.6240 C   0  0  0  0  0  0  0  0  0  0  0  0
   31.7883   30.5943   34.5711 C   0  0  0  0  0  0  0  0  0  0  0  0
   34.2731   24.9847   38.0615 C   0  0  0  0  0  0  0  0  0  0  0  0
   34.9425   23.9107   40.2311 C   0  0  0  0  0  0  0  0  0  0  0  0
   34.5099   24.7519   40.8249 H   0  0  0  0  0  0  0  0  0  0  0  0
   34.0394   27.1934   36.5167 C   0  0  0  0  0  0  0  0  0  0  0  0
   33.9130   28.3395   35.7632 C   0  0  0  0  0  0  0  0  0  0  0  0
   33.6291   28.2382   34.7152 H   0  0  0  0  0  0  0  0  0  0  0  0
   31.3991   31.2915   32.3200 C   0  0  0  0  0  0  0  0  0  0  0  0
   32.7442   31.6054   32.1569 C   0  0  0  0  0  0  0  0  0  0  0  0
   33.1125   32.0015   31.2222 H   0  0  0  0  0  0  0  0  0  0  0  0
   33.6253   31.4055   33.2216 C   0  0  0  0  0  0  0  0  0  0  0  0
   34.6720   31.6490   33.1101 H   0  0  0  0  0  0  0  0  0  0  0  0
   34.4377   27.3222   37.8985 C   0  0  0  0  0  0  0  0  0  0  0  0
   33.7986   25.9120   35.9993 C   0  0  0  0  0  0  0  0  0  0  0  0
   33.5105   25.7834   34.9641 H   0  0  0  0  0  0  0  0  0  0  0  0
   34.1406   29.6177   36.2613 C   0  0  0  0  0  0  0  0  0  0  0  0
   33.1568   30.8742   34.4261 C   0  0  0  0  0  0  0  0  0  0  0  0
   31.2977   30.1277   35.7517 F   0  0  0  0  0  0  0  0  0  0  0  0
   30.5582   31.4802   31.2727 F   0  0  0  0  0  0  0  0  0  0  0  0
   34.0571   30.7294   35.4778 O   0  0  0  0  0  0  0  0  0  0  0  0
   33.9211   24.8069   36.7451 N   0  0  0  0  0  0  0  0  0  0  0  0
   34.8356   30.8744   38.1218 O   0  0  0  0  0  0  0  0  0  0  0  0
   34.6834   28.6115   38.4006 N   0  0  0  0  0  0  0  0  0  0  0  0
   35.0835   28.8034   39.8169 C   0  0  0  0  0  0  0  0  0  0  0  0
   35.5325   27.8552   40.1758 H   0  0  0  0  0  0  0  0  0  0  0  0
   33.9591   29.2675   40.7480 C   0  0  0  0  0  0  0  0  0  0  0  0
   34.3216   29.2957   41.7976 H   0  0  0  0  0  0  0  0  0  0  0  0
   33.0941   28.5726   40.6939 H   0  0  0  0  0  0  0  0  0  0  0  0
   33.6080   30.2863   40.4821 H   0  0  0  0  0  0  0  0  0  0  0  0
   35.8973   29.5563   39.7352 H   0  0  0  0  0  0  0  0  0  0  0  0
   34.5453   26.1892   38.6361 N   0  0  0  0  0  0  0  0  0  0  0  0
   34.3294   23.8831   38.8752 N   0  0  0  0  0  0  0  0  0  0  0  0
   34.1957   22.9762   38.4348 H   0  0  0  0  0  0  0  0  0  0  0  0
  1  2  1  0
  1  3  1  0
  1  4  1  0
  1 19  1  0
  4  5  1  0
  4  6  1  0
  4 15  1  0
  7  8  1  0
  7  9  1  0
  7 10  1  0
  7 15  1  0
 10 11  1  0
 10 12  1  0
 10 19  1  0
 13 14  1  0
 13 17  2  0
 13 24  1  0
 16 32  1  0
 16 38  2  0
 16 39  1  0
 17 33  1  0
 17 34  1  0
 18 37  1  0
 18 47  2  0
 18 48  1  0
 19 20  1  0
 19 48  1  0
 21 22  1  0
 21 29  2  0
 21 30  1  0
 22 23  1  0
 22 32  2  0
 24 25  2  0
 24 35  1  0
 25 26  1  0
 25 27  1  0
 27 28  1  0
 27 33  2  0
 29 39  1  0
 29 47  1  0
 30 31  1  0
 30 37  2  0
 32 36  1  0
 33 36  1  0
 39 40  1  0
 40 41  1  0
 40 42  1  0
 40 46  1  0
 42 43  1  0
 42 44  1  0
 42 45  1  0
 48 49  1  0
M  END
> <intraLJ>
34.237    

> <intraEL>
-15.794   

> <intraDihe>
22.572    

> <interLJ>
0.000     

> <interEJ>
0.000     

> <gridLJ>
-11.411   

> <gridEL>
0.000     

> <totalE>
29.604    

> <LGFE>
-11.411 

> <LE>
-0.393  

> <SMILES>
CCn1c(=O)c(Oc2ccc(F)cc2F)cc2cnc(NC3CCOCC3)nc21

> <atom.dprop.GFE>
-0.2368 0.0000 0.0000 -0.1658 0.0000 0.0000 -0.1975 0.0000 0.0000 -0.3403 0.0000 0.0000 -0.1551 0.0000 -0.5820 0.0130 -0.2144 -0.0226 -0.1991 0.0000 -0.0645 0.0114 0.0000 -0.1972 -0.1570 0.0000 -0.1443 0.0000 -0.1795 -0.1117 0.0000 0.0768 -0.1231 -2.0180 -1.7410 -1.3430 -1.1750 -0.1660 -0.0676 -0.6067 0.0000 -0.5778 0.0000 0.0000 0.0000 0.0000 -0.2210 -0.5050 0.0000

> <atom.prop.CLASS>
PRPC NCLA NCLA PRPC NCLA NCLA PRPC NCLA NCLA PRPC NCLA NCLA BENC NCLA DMEO GEHC BENC GEHC PRPC NCLA BENC BENC NCLA BENC BENC NCLA BENC NCLA GEHC BENC NCLA BENC BENC FLBX FLBX DMEO IMIN FORO GEHC PRPC NCLA PRPC NCLA NCLA NCLA NCLA IMIN FORN NCLA

> <cluster_id>
1

> <rmsd_to_cluster_rep>
0.00    

> <ligRMSD>
1.39    

> <ligCOMD>
1.23    

$$$$
p38_goldstein_13_2m.C_76
     RDKit          3D

 50 54  0  0  0  0  0  0  0  0999 V2000
   36.6060   24.1460   40.2514 C   0  0  0  0  0  0  0  0  0  0  0  0
   37.1013   23.3455   39.6581 H   0  0  0  0  0  0  0  0  0  0  0  0
   36.8744   25.1265   39.8036 H   0  0  0  0  0  0  0  0  0  0  0  0
   37.1170   24.0811   41.6959 C   0  0  0  0  0  0  0  0  0  0  0  0
   36.7100   24.9399   42.2737 H   0  0  0  0  0  0  0  0  0  0  0  0
   38.2259   24.1597   41.6995 H   0  0  0  0  0  0  0  0  0  0  0  0
   35.3265   22.6947   42.3915 C   0  0  0  0  0  0  0  0  0  0  0  0
   35.1002   21.7400   42.9143 H   0  0  0  0  0  0  0  0  0  0  0  0
   34.8814   23.5243   42.9837 H   0  0  0  0  0  0  0  0  0  0  0  0
   34.7039   22.6650   40.9918 C   0  0  0  0  0  0  0  0  0  0  0  0
   33.5980   22.5853   41.0792 H   0  0  0  0  0  0  0  0  0  0  0  0
   35.0768   21.7695   40.4470 H   0  0  0  0  0  0  0  0  0  0  0  0
   30.9177   30.6883   33.4977 C   0  0  0  0  0  0  0  0  0  0  0  0
   29.8818   30.3982   33.5795 H   0  0  0  0  0  0  0  0  0  0  0  0
   36.7381   22.8644   42.3308 O   0  0  0  0  0  0  0  0  0  0  0  0
   34.5746   29.7806   37.6710 C   0  0  0  0  0  0  0  0  0  0  0  0
   31.8031   30.5146   34.5625 C   0  0  0  0  0  0  0  0  0  0  0  0
   34.4263   25.0014   38.0469 C   0  0  0  0  0  0  0  0  0  0  0  0
   35.0803   23.9343   40.2181 C   0  0  0  0  0  0  0  0  0  0  0  0
   34.6180   24.7711   40.7956 H   0  0  0  0  0  0  0  0  0  0  0  0
   34.1382   27.2083   36.5118 C   0  0  0  0  0  0  0  0  0  0  0  0
   33.9783   28.3589   35.7724 C   0  0  0  0  0  0  0  0  0  0  0  0
   33.7037   28.2636   34.7212 H   0  0  0  0  0  0  0  0  0  0  0  0
   31.4173   31.2502   32.3228 C   0  0  0  0  0  0  0  0  0  0  0  0
   32.7443   31.6478   32.1976 C   0  0  0  0  0  0  0  0  0  0  0  0
   33.1070   32.0907   31.2818 H   0  0  0  0  0  0  0  0  0  0  0  0
   33.6140   31.4726   33.2762 C   0  0  0  0  0  0  0  0  0  0  0  0
   34.6461   31.7812   33.1938 H   0  0  0  0  0  0  0  0  0  0  0  0
   34.5227   27.3345   37.8952 C   0  0  0  0  0  0  0  0  0  0  0  0
   33.9325   25.9248   35.9872 C   0  0  0  0  0  0  0  0  0  0  0  0
   33.6511   25.7929   34.9506 H   0  0  0  0  0  0  0  0  0  0  0  0
   34.1577   29.6358   36.2951 C   0  0  0  0  0  0  0  0  0  0  0  0
   33.1546   30.8803   34.4561 C   0  0  0  0  0  0  0  0  0  0  0  0
   31.3206   29.9819   35.7179 F   0  0  0  0  0  0  0  0  0  0  0  0
   30.5876   31.4180   31.2628 F   0  0  0  0  0  0  0  0  0  0  0  0
   34.0416   30.7571   35.5251 O   0  0  0  0  0  0  0  0  0  0  0  0
   34.0876   24.8209   36.7282 N   0  0  0  0  0  0  0  0  0  0  0  0
   34.7599   30.8770   38.2065 O   0  0  0  0  0  0  0  0  0  0  0  0
   34.7427   28.6078   38.4198 N   0  0  0  0  0  0  0  0  0  0  0  0
   35.0742   28.6972   39.8707 C   0  0  0  0  0  0  0  0  0  0  0  0
   36.3606   28.0430   40.3815 C   0  0  0  0  0  0  0  0  0  0  0  0
   37.0160   27.5988   39.6503 H   0  0  0  0  0  0  0  0  0  0  0  0
   36.3026   27.5856   41.3555 H   0  0  0  0  0  0  0  0  0  0  0  0
   34.2189   28.6534   40.5270 H   0  0  0  0  0  0  0  0  0  0  0  0
   36.2447   29.5611   40.3365 C   0  0  0  0  0  0  0  0  0  0  0  0
   36.1161   30.0571   41.2848 H   0  0  0  0  0  0  0  0  0  0  0  0
   36.8296   30.0563   39.5791 H   0  0  0  0  0  0  0  0  0  0  0  0
   34.6458   26.2085   38.6354 N   0  0  0  0  0  0  0  0  0  0  0  0
   34.5232   23.8927   38.8433 N   0  0  0  0  0  0  0  0  0  0  0  0
   34.4566   22.9865   38.3865 H   0  0  0  0  0  0  0  0  0  0  0  0
  1  2  1  0
  1  3  1  0
  1  4  1  0
  1 19  1  0
  4  5  1  0
  4  6  1  0
  4 15  1  0
  7  8  1  0
  7  9  1  0
  7 10  1  0
  7 15  1  0
 10 11  1  0
 10 12  1  0
 10 19  1  0
 13 14  1  0
 13 17  2  0
 13 24  1  0
 16 32  1  0
 16 38  2  0
 16 39  1  0
 17 33  1  0
 17 34  1  0
 18 37  1  0
 18 48  2  0
 18 49  1  0
 19 20  1  0
 19 49  1  0
 21 22  1  0
 21 29  2  0
 21 30  1  0
 22 23  1  0
 22 32  2  0
 24 25  2  0
 24 35  1  0
 25 26  1  0
 25 27  1  0
 27 28  1  0
 27 33  2  0
 29 39  1  0
 29 48  1  0
 30 31  1  0
 30 37  2  0
 32 36  1  0
 33 36  1  0
 39 40  1  0
 40 41  1  0
 40 44  1  0
 40 45  1  0
 41 42  1  0
 41 43  1  0
 41 45  1  0
 45 46  1  0
 45 47  1  0
 49 50  1  0
M  END
> <intraLJ>
32.251    

> <intraEL>
-21.963   

> <intraDihe>
31.125    

> <interLJ>
0.000     

> <interEJ>
0.000     

> <gridLJ>
-11.497   

> <gridEL>
0.000     

> <totalE>
29.916    

> <LGFE>
-11.497 

> <LE>
-0.383  

> <SMILES>
O=c1c(Oc2ccc(F)cc2F)cc2cnc(NC3CCOCC3)nc2n1C1CC1

> <atom.dprop.GFE>
-0.2368 0.0000 0.0000 -0.1658 0.0000 0.0000 -0.1975 0.0000 0.0000 -0.3403 0.0000 0.0000 -0.1197 0.0000 -0.5820 0.0130 -0.2144 -0.0226 -0.1991 0.0000 -0.0645 0.0114 0.0000 -0.1972 -0.1570 0.0000 -0.1443 0.0000 -0.1795 -0.1117 0.0000 0.0768 -0.1231 -2.0180 -1.7410 -1.3430 -1.1750 -0.1660 -0.0676 -0.5408 -0.3420 0.0000 0.0000 0.0000 -0.4229 0.0000 0.0000 -0.2210 -0.5050 0.0000

> <atom.prop.CLASS>
PRPC NCLA NCLA PRPC NCLA NCLA PRPC NCLA NCLA PRPC NCLA NCLA BENC NCLA DMEO GEHC BENC GEHC PRPC NCLA BENC BENC NCLA BENC BENC NCLA BENC NCLA GEHC BENC NCLA BENC BENC FLBX FLBX DMEO IMIN FORO GEHC PRPC PRPC NCLA NCLA NCLA PRPC NCLA NCLA IMIN FORN NCLA

> <cluster_id>
1

> <rmsd_to_cluster_rep>
0.00    

> <ligRMSD>
1.35    

> <ligCOMD>
1.18    

$$$$
p38_goldstein_14_2n.C_1207
     RDKit          3D

 53 56  0  0  0  0  0  0  0  0999 V2000
   36.6061   24.3806   40.1596 C   0  0  0  0  0  0  0  0  0  0  0  0
   37.1869   23.6016   39.6178 H   0  0  0  0  0  0  0  0  0  0  0  0
   36.8486   25.3678   39.7117 H   0  0  0  0  0  0  0  0  0  0  0  0
   37.0250   24.3717   41.6373 C   0  0  0  0  0  0  0  0  0  0  0  0
   36.5399   25.2217   42.1657 H   0  0  0  0  0  0  0  0  0  0  0  0
   38.1260   24.5069   41.7099 H   0  0  0  0  0  0  0  0  0  0  0  0
   35.2627   22.9224   42.2531 C   0  0  0  0  0  0  0  0  0  0  0  0
   35.0424   21.9778   42.7962 H   0  0  0  0  0  0  0  0  0  0  0  0
   34.7425   23.7514   42.7814 H   0  0  0  0  0  0  0  0  0  0  0  0
   34.7402   22.8151   40.8150 C   0  0  0  0  0  0  0  0  0  0  0  0
   33.6367   22.6777   40.8322 H   0  0  0  0  0  0  0  0  0  0  0  0
   35.1954   21.9246   40.3284 H   0  0  0  0  0  0  0  0  0  0  0  0
   30.9690   30.8447   33.2518 C   0  0  0  0  0  0  0  0  0  0  0  0
   29.9243   30.6459   33.4339 H   0  0  0  0  0  0  0  0  0  0  0  0
   36.6660   23.1539   42.2804 O   0  0  0  0  0  0  0  0  0  0  0  0
   34.5796   29.8445   37.2056 C   0  0  0  0  0  0  0  0  0  0  0  0
   31.9289   30.6259   34.2402 C   0  0  0  0  0  0  0  0  0  0  0  0
   34.5902   25.0542   37.7574 C   0  0  0  0  0  0  0  0  0  0  0  0
   35.0989   24.0788   40.0191 C   0  0  0  0  0  0  0  0  0  0  0  0
   34.5516   24.9045   40.5353 H   0  0  0  0  0  0  0  0  0  0  0  0
   34.3535   27.2048   36.1308 C   0  0  0  0  0  0  0  0  0  0  0  0
   34.2251   28.3213   35.3341 C   0  0  0  0  0  0  0  0  0  0  0  0
   34.0563   28.1755   34.2667 H   0  0  0  0  0  0  0  0  0  0  0  0
   31.4051   31.3316   32.0197 C   0  0  0  0  0  0  0  0  0  0  0  0
   32.7430   31.6131   31.7648 C   0  0  0  0  0  0  0  0  0  0  0  0
   33.0562   32.0001   30.8064 H   0  0  0  0  0  0  0  0  0  0  0  0
   33.6893   31.3920   32.7670 C   0  0  0  0  0  0  0  0  0  0  0  0
   34.7318   31.6096   32.5841 H   0  0  0  0  0  0  0  0  0  0  0  0
   34.6144   27.3935   37.5373 C   0  0  0  0  0  0  0  0  0  0  0  0
   34.2450   25.8982   35.6332 C   0  0  0  0  0  0  0  0  0  0  0  0
   34.0593   25.7255   34.5811 H   0  0  0  0  0  0  0  0  0  0  0  0
   34.3177   29.6242   35.8117 C   0  0  0  0  0  0  0  0  0  0  0  0
   33.2906   30.8740   34.0017 C   0  0  0  0  0  0  0  0  0  0  0  0
   31.5073   30.1732   35.4527 F   0  0  0  0  0  0  0  0  0  0  0  0
   30.4998   31.5407   31.0319 F   0  0  0  0  0  0  0  0  0  0  0  0
   34.2567   30.7053   34.9874 O   0  0  0  0  0  0  0  0  0  0  0  0
   34.3656   24.8225   36.4212 N   0  0  0  0  0  0  0  0  0  0  0  0
   34.6809   30.9726   37.7003 O   0  0  0  0  0  0  0  0  0  0  0  0
   34.7072   28.7096   38.0195 N   0  0  0  0  0  0  0  0  0  0  0  0
   34.9963   28.9654   39.4465 C   0  0  0  0  0  0  0  0  0  0  0  0
   34.6166   28.1018   40.0291 H   0  0  0  0  0  0  0  0  0  0  0  0
   34.3427   29.8359   39.6720 H   0  0  0  0  0  0  0  0  0  0  0  0
   36.4711   29.2465   39.7453 C   0  0  0  0  0  0  0  0  0  0  0  0
   36.7267   29.4543   41.2379 C   0  0  0  0  0  0  0  0  0  0  0  0
   35.9867   30.5772   41.6918 O   0  0  0  0  0  0  0  0  0  0  0  0
   36.1779   30.6674   42.6284 H   0  0  0  0  0  0  0  0  0  0  0  0
   37.8098   29.6255   41.4210 H   0  0  0  0  0  0  0  0  0  0  0  0
   36.4011   28.5578   41.8092 H   0  0  0  0  0  0  0  0  0  0  0  0
   36.8023   30.1622   39.2069 H   0  0  0  0  0  0  0  0  0  0  0  0
   37.0944   28.3994   39.3805 H   0  0  0  0  0  0  0  0  0  0  0  0
   34.7442   26.2882   38.3146 N   0  0  0  0  0  0  0  0  0  0  0  0
   34.6334   23.9778   38.6073 N   0  0  0  0  0  0  0  0  0  0  0  0
   34.6084   23.0539   38.1828 H   0  0  0  0  0  0  0  0  0  0  0  0
  1  2  1  0
  1  3  1  0
  1  4  1  0
  1 19  1  0
  4  5  1  0
  4  6  1  0
  4 15  1  0
  7  8  1  0
  7  9  1  0
  7 10  1  0
  7 15  1  0
 10 11  1  0
 10 12  1  0
 10 19  1  0
 13 14  1  0
 13 17  2  0
 13 24  1  0
 16 32  1  0
 16 38  2  0
 16 39  1  0
 17 33  1  0
 17 34  1  0
 18 37  1  0
 18 51  2  0
 18 52  1  0
 19 20  1  0
 19 52  1  0
 21 22  1  0
 21 29  2  0
 21 30  1  0
 22 23  1  0
 22 32  2  0
 24 25  2  0
 24 35  1  0
 25 26  1  0
 25 27  1  0
 27 28  1  0
 27 33  2  0
 29 39  1  0
 29 51  1  0
 30 31  1  0
 30 37  2  0
 32 36  1  0
 33 36  1  0
 39 40  1  0
 40 41  1  0
 40 42  1  0
 40 43  1  0
 43 44  1  0
 43 49  1  0
 43 50  1  0
 44 45  1  0
 44 47  1  0
 44 48  1  0
 45 46  1  0
 52 53  1  0
M  END
> <intraLJ>
33.473    

> <intraEL>
-14.798   

> <intraDihe>
20.083    

> <interLJ>
0.000     

> <interEJ>
0.000     

> <gridLJ>
-12.059   

> <gridEL>
0.000     

> <totalE>
26.698    

> <LGFE>
-12.059 

> <LE>
-0.389  

> <SMILES>
O=c1c(Oc2ccc(F)cc2F)cc2cnc(NC3CCOCC3)nc2n1CCCO

> <atom.dprop.GFE>
-0.2368 0.0000 0.0000 -0.1658 0.0000 0.0000 -0.1712 0.0000 0.0000 -0.3283 0.0000 0.0000 -0.1551 0.0000 -0.5820 0.1382 -0.2144 -0.1622 -0.1991 0.0000 -0.0645 0.0977 0.0000 -0.1972 -0.1570 0.0000 -0.1443 0.0000 -0.1732 -0.1186 0.0000 0.0768 -0.1231 -2.0180 -1.7410 -1.3430 -1.1750 -0.2220 -0.0676 -0.5305 0.0000 0.0000 -0.3590 -0.4379 -0.8160 0.0000 0.0000 0.0000 0.0000 0.0000 -0.2210 -0.2480 0.0000

> <atom.prop.CLASS>
PRPC NCLA NCLA PRPC NCLA NCLA PRPC NCLA NCLA PRPC NCLA NCLA BENC NCLA DMEO GEHC BENC GEHC PRPC NCLA BENC BENC NCLA BENC BENC NCLA BENC NCLA GEHC BENC NCLA BENC BENC FLBX FLBX DMEO IMIN FORO GEHC PRPC NCLA NCLA PRPC PRPC MEOO NCLA NCLA NCLA NCLA NCLA IMIN FORN NCLA

> <cluster_id>
1

> <rmsd_to_cluster_rep>
0.00    

> <ligRMSD>
1.50    

> <ligCOMD>
1.17    

$$$$
p38_goldstein_15_2o_1249
     RDKit          3D

 55 58  0  0  0  0  0  0  0  0999 V2000
   36.5229   24.1178   39.9640 C   0  0  0  0  0  0  0  0  0  0  0  0
   36.8838   23.2444   39.3770 H   0  0  0  0  0  0  0  0  0  0  0  0
   36.8333   25.0438   39.4347 H   0  0  0  0  0  0  0  0  0  0  0  0
   37.1704   24.0808   41.3558 C   0  0  0  0  0  0  0  0  0  0  0  0
   36.9081   25.0077   41.9122 H   0  0  0  0  0  0  0  0  0  0  0  0
   38.2763   24.0471   41.2484 H   0  0  0  0  0  0  0  0  0  0  0  0
   35.3369   22.9344   42.3109 C   0  0  0  0  0  0  0  0  0  0  0  0
   35.0708   22.0472   42.9255 H   0  0  0  0  0  0  0  0  0  0  0  0
   35.0390   23.8452   42.8755 H   0  0  0  0  0  0  0  0  0  0  0  0
   34.5763   22.8771   40.9807 C   0  0  0  0  0  0  0  0  0  0  0  0
   33.4824   22.9135   41.1786 H   0  0  0  0  0  0  0  0  0  0  0  0
   34.8072   21.9159   40.4708 H   0  0  0  0  0  0  0  0  0  0  0  0
   30.9768   30.9444   33.4940 C   0  0  0  0  0  0  0  0  0  0  0  0
   29.9442   30.7982   33.7706 H   0  0  0  0  0  0  0  0  0  0  0  0
   36.7444   22.9477   42.1045 O   0  0  0  0  0  0  0  0  0  0  0  0
   35.0318   29.7213   37.0531 C   0  0  0  0  0  0  0  0  0  0  0  0
   32.0113   30.6524   34.3834 C   0  0  0  0  0  0  0  0  0  0  0  0
   34.2635   25.0351   37.8832 C   0  0  0  0  0  0  0  0  0  0  0  0
   34.9855   24.0513   40.0802 C   0  0  0  0  0  0  0  0  0  0  0  0
   34.6605   24.9635   40.6369 H   0  0  0  0  0  0  0  0  0  0  0  0
   34.1115   27.1522   36.2038 C   0  0  0  0  0  0  0  0  0  0  0  0
   34.0304   28.2556   35.3822 C   0  0  0  0  0  0  0  0  0  0  0  0
   33.6289   28.1210   34.3773 H   0  0  0  0  0  0  0  0  0  0  0  0
   31.3222   31.4338   32.2343 C   0  0  0  0  0  0  0  0  0  0  0  0
   32.6441   31.6485   31.8591 C   0  0  0  0  0  0  0  0  0  0  0  0
   32.8876   32.0390   30.8820 H   0  0  0  0  0  0  0  0  0  0  0  0
   33.6662   31.3551   32.7638 C   0  0  0  0  0  0  0  0  0  0  0  0
   34.6974   31.5207   32.4872 H   0  0  0  0  0  0  0  0  0  0  0  0
   34.6659   27.3215   37.5250 C   0  0  0  0  0  0  0  0  0  0  0  0
   33.6822   25.8765   35.8103 C   0  0  0  0  0  0  0  0  0  0  0  0
   33.2781   25.7149   34.8195 H   0  0  0  0  0  0  0  0  0  0  0  0
   34.4433   29.5292   35.7593 C   0  0  0  0  0  0  0  0  0  0  0  0
   33.3560   30.8313   34.0213 C   0  0  0  0  0  0  0  0  0  0  0  0
   31.6817   30.1955   35.6224 F   0  0  0  0  0  0  0  0  0  0  0  0
   30.3416   31.7126   31.3400 F   0  0  0  0  0  0  0  0  0  0  0  0
   34.3978   30.5919   34.9100 O   0  0  0  0  0  0  0  0  0  0  0  0
   33.7636   24.8148   36.6220 N   0  0  0  0  0  0  0  0  0  0  0  0
   35.4624   30.8133   37.4400 O   0  0  0  0  0  0  0  0  0  0  0  0
   35.1139   28.6009   37.8913 N   0  0  0  0  0  0  0  0  0  0  0  0
   35.6426   28.8541   39.2453 C   0  0  0  0  0  0  0  0  0  0  0  0
   36.0547   27.8985   39.6284 H   0  0  0  0  0  0  0  0  0  0  0  0
   34.6031   29.4635   40.1852 C   0  0  0  0  0  0  0  0  0  0  0  0
   33.7381   28.7868   40.3459 H   0  0  0  0  0  0  0  0  0  0  0  0
   34.2447   30.4589   39.8574 H   0  0  0  0  0  0  0  0  0  0  0  0
   36.4978   29.5337   39.0376 H   0  0  0  0  0  0  0  0  0  0  0  0
   34.7186   26.2361   38.3374 N   0  0  0  0  0  0  0  0  0  0  0  0
   34.2851   23.9875   38.7677 N   0  0  0  0  0  0  0  0  0  0  0  0
   34.0544   23.0679   38.3996 H   0  0  0  0  0  0  0  0  0  0  0  0
   35.4049   29.7020   41.7483 S   0  0  0  0  0  0  0  0  0  0  0  0
   34.0578   30.3137   42.7514 C   0  0  0  0  0  0  0  0  0  0  0  0
   33.2565   29.5466   42.8012 H   0  0  0  0  0  0  0  0  0  0  0  0
   33.6542   31.2445   42.2995 H   0  0  0  0  0  0  0  0  0  0  0  0
   34.4309   30.5295   43.7745 H   0  0  0  0  0  0  0  0  0  0  0  0
   35.7850   28.3958   42.2180 O   0  0  0  0  0  0  0  0  0  0  0  0
   36.3777   30.7525   41.5931 O   0  0  0  0  0  0  0  0  0  0  0  0
  1  2  1  0
  1  3  1  0
  1  4  1  0
  1 19  1  0
  4  5  1  0
  4  6  1  0
  4 15  1  0
  7  8  1  0
  7  9  1  0
  7 10  1  0
  7 15  1  0
 10 11  1  0
 10 12  1  0
 10 19  1  0
 13 14  1  0
 13 17  2  0
 13 24  1  0
 16 32  1  0
 16 38  2  0
 16 39  1  0
 17 33  1  0
 17 34  1  0
 18 37  1  0
 18 46  2  0
 18 47  1  0
 19 20  1  0
 19 47  1  0
 21 22  1  0
 21 29  2  0
 21 30  1  0
 22 23  1  0
 22 32  2  0
 24 25  2  0
 24 35  1  0
 25 26  1  0
 25 27  1  0
 27 28  1  0
 27 33  2  0
 29 39  1  0
 29 46  1  0
 30 31  1  0
 30 37  2  0
 32 36  1  0
 33 36  1  0
 39 40  1  0
 40 41  1  0
 40 42  1  0
 40 45  1  0
 42 43  1  0
 42 44  1  0
 42 49  1  0
 47 48  1  0
 49 50  1  0
 49 54  2  0
 49 55  2  0
 50 51  1  0
 50 52  1  0
 50 53  1  0
M  END
> <intraLJ>
33.286    

> <intraEL>
-17.747   

> <intraDihe>
24.403    

> <interLJ>
0.000     

> <interEJ>
0.000     

> <gridLJ>
-11.913   

> <gridEL>
0.000     

> <totalE>
28.029    

> <LGFE>
-11.913 

> <LE>
-0.361  

> <SMILES>
CS(=O)(=O)CCn1c(=O)c(Oc2ccc(F)cc2F)cc2cnc(NC3CCOCC3)nc21

> <atom.dprop.GFE>
-0.2368 0.0000 0.0000 -0.1658 0.0000 0.0000 -0.1712 0.0000 0.0000 -0.3283 0.0000 0.0000 -0.1551 0.0000 -0.5820 0.0403 -0.2144 -0.0226 -0.1991 0.0000 -0.0645 0.0977 0.0000 -0.1972 -0.1570 0.0000 -0.1443 0.0000 -0.1732 -0.0872 0.0000 0.0616 -0.1231 -2.0180 -1.7410 -1.3430 -1.1750 -0.0150 -0.0579 -0.5305 0.0000 -0.5778 0.0000 0.0000 0.0000 -0.2210 -0.5050 0.0000 0.0000 -0.3387 0.0000 0.0000 0.0000 -0.2360 -0.3320

> <atom.prop.CLASS>
PRPC NCLA NCLA PRPC NCLA NCLA PRPC NCLA NCLA PRPC NCLA NCLA BENC NCLA DMEO GEHC BENC GEHC PRPC NCLA BENC BENC NCLA BENC BENC NCLA BENC NCLA GEHC BENC NCLA BENC BENC FLBX FLBX DMEO IMIN FORO GEHC PRPC NCLA PRPC NCLA NCLA NCLA IMIN FORN NCLA NCLA PRPC NCLA NCLA NCLA FORO FORO

> <cluster_id>
1

> <rmsd_to_cluster_rep>
0.00    

> <ligRMSD>
1.32    

> <ligCOMD>
1.12    

$$$$
p38_goldstein_16_2p.C_592
     RDKit          3D

 58 61  0  0  0  0  0  0  0  0999 V2000
   36.6220   24.5455   40.2751 C   0  0  0  0  0  0  0  0  0  0  0  0
   37.1747   23.7425   39.7389 H   0  0  0  0  0  0  0  0  0  0  0  0
   36.8716   25.5166   39.7970 H   0  0  0  0  0  0  0  0  0  0  0  0
   37.0770   24.5647   41.7418 C   0  0  0  0  0  0  0  0  0  0  0  0
   36.6207   25.4362   42.2607 H   0  0  0  0  0  0  0  0  0  0  0  0
   38.1817   24.6809   41.7843 H   0  0  0  0  0  0  0  0  0  0  0  0
   35.3044   23.1633   42.4356 C   0  0  0  0  0  0  0  0  0  0  0  0
   35.0810   22.2359   43.0064 H   0  0  0  0  0  0  0  0  0  0  0  0
   34.8122   24.0138   42.9565 H   0  0  0  0  0  0  0  0  0  0  0  0
   34.7445   23.0316   41.0139 C   0  0  0  0  0  0  0  0  0  0  0  0
   33.6394   22.9155   41.0612 H   0  0  0  0  0  0  0  0  0  0  0  0
   35.1712   22.1213   40.5380 H   0  0  0  0  0  0  0  0  0  0  0  0
   30.9615   30.8198   33.2430 C   0  0  0  0  0  0  0  0  0  0  0  0
   29.9212   30.5904   33.4136 H   0  0  0  0  0  0  0  0  0  0  0  0
   36.7119   23.3697   42.4231 O   0  0  0  0  0  0  0  0  0  0  0  0
   34.6074   29.9755   37.2552 C   0  0  0  0  0  0  0  0  0  0  0  0
   31.9157   30.6355   34.2442 C   0  0  0  0  0  0  0  0  0  0  0  0
   34.5553   25.1999   37.9107 C   0  0  0  0  0  0  0  0  0  0  0  0
   35.1065   24.2689   40.1796 C   0  0  0  0  0  0  0  0  0  0  0  0
   34.5876   25.1165   40.6894 H   0  0  0  0  0  0  0  0  0  0  0  0
   34.3129   27.3177   36.2441 C   0  0  0  0  0  0  0  0  0  0  0  0
   34.1782   28.4176   35.4267 C   0  0  0  0  0  0  0  0  0  0  0  0
   33.9768   28.2505   34.3680 H   0  0  0  0  0  0  0  0  0  0  0  0
   31.3972   31.3133   32.0133 C   0  0  0  0  0  0  0  0  0  0  0  0
   32.7291   31.6340   31.7734 C   0  0  0  0  0  0  0  0  0  0  0  0
   33.0422   32.0254   30.8167 H   0  0  0  0  0  0  0  0  0  0  0  0
   33.6696   31.4472   32.7885 C   0  0  0  0  0  0  0  0  0  0  0  0
   34.7069   31.6961   32.6168 H   0  0  0  0  0  0  0  0  0  0  0  0
   34.6159   27.5328   37.6389 C   0  0  0  0  0  0  0  0  0  0  0  0
   34.1698   26.0026   35.7781 C   0  0  0  0  0  0  0  0  0  0  0  0
   33.9538   25.8104   34.7352 H   0  0  0  0  0  0  0  0  0  0  0  0
   34.3030   29.7287   35.8718 C   0  0  0  0  0  0  0  0  0  0  0  0
   33.2724   30.9234   34.0217 C   0  0  0  0  0  0  0  0  0  0  0  0
   31.4929   30.1767   35.4538 F   0  0  0  0  0  0  0  0  0  0  0  0
   30.4979   31.4893   31.0134 F   0  0  0  0  0  0  0  0  0  0  0  0
   34.2315   30.7919   35.0231 O   0  0  0  0  0  0  0  0  0  0  0  0
   34.2939   24.9425   36.5860 N   0  0  0  0  0  0  0  0  0  0  0  0
   34.7404   31.1118   37.7216 O   0  0  0  0  0  0  0  0  0  0  0  0
   34.7430   28.8568   38.0922 N   0  0  0  0  0  0  0  0  0  0  0  0
   35.0427   29.1362   39.5181 C   0  0  0  0  0  0  0  0  0  0  0  0
   34.7353   28.2492   40.1079 H   0  0  0  0  0  0  0  0  0  0  0  0
   34.3334   29.9591   39.7537 H   0  0  0  0  0  0  0  0  0  0  0  0
   36.4970   29.5224   39.8033 C   0  0  0  0  0  0  0  0  0  0  0  0
   36.7797   30.3782   39.1511 H   0  0  0  0  0  0  0  0  0  0  0  0
   37.1579   28.6662   39.5387 H   0  0  0  0  0  0  0  0  0  0  0  0
   34.7422   26.4428   38.4369 N   0  0  0  0  0  0  0  0  0  0  0  0
   34.6039   24.1425   38.7830 N   0  0  0  0  0  0  0  0  0  0  0  0
   34.5548   23.2098   38.3805 H   0  0  0  0  0  0  0  0  0  0  0  0
   36.7311   29.9100   41.2686 C   0  0  0  0  0  0  0  0  0  0  0  0
   36.0492   30.7228   41.5937 H   0  0  0  0  0  0  0  0  0  0  0  0
   36.6414   29.0339   41.9436 H   0  0  0  0  0  0  0  0  0  0  0  0
   38.4082   30.5325   41.3491 S   0  0  0  0  0  0  0  0  0  0  0  0
   38.6618   30.8409   43.0920 C   0  0  0  0  0  0  0  0  0  0  0  0
   38.5779   29.8867   43.6536 H   0  0  0  0  0  0  0  0  0  0  0  0
   37.8973   31.5587   43.4568 H   0  0  0  0  0  0  0  0  0  0  0  0
   39.6749   31.2708   43.2414 H   0  0  0  0  0  0  0  0  0  0  0  0
   39.2750   29.4569   40.9439 O   0  0  0  0  0  0  0  0  0  0  0  0
   38.4242   31.7951   40.6570 O   0  0  0  0  0  0  0  0  0  0  0  0
  1  2  1  0
  1  3  1  0
  1  4  1  0
  1 19  1  0
  4  5  1  0
  4  6  1  0
  4 15  1  0
  7  8  1  0
  7  9  1  0
  7 10  1  0
  7 15  1  0
 10 11  1  0
 10 12  1  0
 10 19  1  0
 13 14  1  0
 13 17  2  0
 13 24  1  0
 16 32  1  0
 16 38  2  0
 16 39  1  0
 17 33  1  0
 17 34  1  0
 18 37  1  0
 18 46  2  0
 18 47  1  0
 19 20  1  0
 19 47  1  0
 21 22  1  0
 21 29  2  0
 21 30  1  0
 22 23  1  0
 22 32  2  0
 24 25  2  0
 24 35  1  0
 25 26  1  0
 25 27  1  0
 27 28  1  0
 27 33  2  0
 29 39  1  0
 29 46  1  0
 30 31  1  0
 30 37  2  0
 32 36  1  0
 33 36  1  0
 39 40  1  0
 40 41  1  0
 40 42  1  0
 40 43  1  0
 43 44  1  0
 43 45  1  0
 43 49  1  0
 47 48  1  0
 49 50  1  0
 49 51  1  0
 49 52  1  0
 52 53  1  0
 52 57  2  0
 52 58  2  0
 53 54  1  0
 53 55  1  0
 53 56  1  0
M  END
> <intraLJ>
32.633    

> <intraEL>
-17.219   

> <intraDihe>
23.088    

> <interLJ>
0.000     

> <interEJ>
0.000     

> <gridLJ>
-11.388   

> <gridEL>
0.000     

> <totalE>
27.114    

> <LGFE>
-11.388 

> <LE>
-0.335  

> <SMILES>
CS(=O)(=O)CCCn1c(=O)c(Oc2ccc(F)cc2F)cc2cnc(NC3CCOCC3)nc21

> <atom.dprop.GFE>
-0.2368 0.0000 0.0000 -0.1658 0.0000 0.0000 -0.1712 0.0000 0.0000 -0.3283 0.0000 0.0000 -0.1551 0.0000 -0.5820 0.1382 -0.2144 -0.0226 -0.1991 0.0000 -0.0645 0.0977 0.0000 -0.1972 -0.1570 0.0000 -0.1443 0.0000 -0.1732 -0.1117 0.0000 0.0768 -0.1231 -2.0180 -1.7410 -1.3430 -1.1750 -0.2220 0.0226 -0.5305 0.0000 0.0000 -0.4229 0.0000 0.0000 -0.2210 -0.5050 0.0000 -0.4063 0.0000 0.0000 0.0000 0.1036 0.0000 0.0000 0.0000 -0.0150 -0.1810

> <atom.prop.CLASS>
PRPC NCLA NCLA PRPC NCLA NCLA PRPC NCLA NCLA PRPC NCLA NCLA BENC NCLA DMEO GEHC BENC GEHC PRPC NCLA BENC BENC NCLA BENC BENC NCLA BENC NCLA GEHC BENC NCLA BENC BENC FLBX FLBX DMEO IMIN FORO GEHC PRPC NCLA NCLA PRPC NCLA NCLA IMIN FORN NCLA PRPC NCLA NCLA NCLA PRPC NCLA NCLA NCLA FORO FORO

> <cluster_id>
1

> <rmsd_to_cluster_rep>
0.00    

> <ligRMSD>
1.44    

> <ligCOMD>
1.19    

$$$$
p38_goldstein_17_2q.C_70
     RDKit          3D

 59 63  0  0  0  0  0  0  0  0999 V2000
   36.5412   24.1574   40.1503 C   0  0  0  0  0  0  0  0  0  0  0  0
   36.9568   23.3567   39.4987 H   0  0  0  0  0  0  0  0  0  0  0  0
   36.8302   25.1395   39.7189 H   0  0  0  0  0  0  0  0  0  0  0  0
   37.1495   24.0117   41.5520 C   0  0  0  0  0  0  0  0  0  0  0  0
   36.8393   24.8721   42.1848 H   0  0  0  0  0  0  0  0  0  0  0  0
   38.2585   24.0233   41.4770 H   0  0  0  0  0  0  0  0  0  0  0  0
   35.3322   22.7363   42.3510 C   0  0  0  0  0  0  0  0  0  0  0  0
   35.0760   21.7953   42.8846 H   0  0  0  0  0  0  0  0  0  0  0  0
   34.9988   23.5908   42.9800 H   0  0  0  0  0  0  0  0  0  0  0  0
   34.6096   22.7700   41.0011 C   0  0  0  0  0  0  0  0  0  0  0  0
   33.5101   22.7568   41.1679 H   0  0  0  0  0  0  0  0  0  0  0  0
   34.8849   21.8577   40.4260 H   0  0  0  0  0  0  0  0  0  0  0  0
   30.9945   30.9217   33.5279 C   0  0  0  0  0  0  0  0  0  0  0  0
   29.9617   30.8042   33.8173 H   0  0  0  0  0  0  0  0  0  0  0  0
   36.7414   22.7989   42.1740 O   0  0  0  0  0  0  0  0  0  0  0  0
   34.9388   29.7618   37.1499 C   0  0  0  0  0  0  0  0  0  0  0  0
   32.0303   30.6477   34.4209 C   0  0  0  0  0  0  0  0  0  0  0  0
   34.3308   25.0490   38.0003 C   0  0  0  0  0  0  0  0  0  0  0  0
   35.0053   24.0224   40.2024 C   0  0  0  0  0  0  0  0  0  0  0  0
   34.6126   24.8928   40.7808 H   0  0  0  0  0  0  0  0  0  0  0  0
   34.1539   27.1488   36.3001 C   0  0  0  0  0  0  0  0  0  0  0  0
   34.0746   28.2340   35.4557 C   0  0  0  0  0  0  0  0  0  0  0  0
   33.7390   28.0720   34.4304 H   0  0  0  0  0  0  0  0  0  0  0  0
   31.3378   31.3569   32.2488 C   0  0  0  0  0  0  0  0  0  0  0  0
   32.6600   31.5352   31.8559 C   0  0  0  0  0  0  0  0  0  0  0  0
   32.9020   31.8839   30.8628 H   0  0  0  0  0  0  0  0  0  0  0  0
   33.6843   31.2605   32.7644 C   0  0  0  0  0  0  0  0  0  0  0  0
   34.7158   31.3959   32.4726 H   0  0  0  0  0  0  0  0  0  0  0  0
   34.6436   27.3531   37.6433 C   0  0  0  0  0  0  0  0  0  0  0  0
   33.7799   25.8572   35.9070 C   0  0  0  0  0  0  0  0  0  0  0  0
   33.4106   25.6725   34.9065 H   0  0  0  0  0  0  0  0  0  0  0  0
   34.4309   29.5229   35.8255 C   0  0  0  0  0  0  0  0  0  0  0  0
   33.3777   30.7902   34.0444 C   0  0  0  0  0  0  0  0  0  0  0  0
   31.6954   30.2506   35.6786 F   0  0  0  0  0  0  0  0  0  0  0  0
   30.3524   31.6231   31.3561 F   0  0  0  0  0  0  0  0  0  0  0  0
   34.4302   30.5435   34.9257 O   0  0  0  0  0  0  0  0  0  0  0  0
   33.8688   24.8084   36.7316 N   0  0  0  0  0  0  0  0  0  0  0  0
   35.2903   30.8814   37.5320 O   0  0  0  0  0  0  0  0  0  0  0  0
   35.0160   28.6562   38.0191 N   0  0  0  0  0  0  0  0  0  0  0  0
   34.7239   26.2684   38.4642 N   0  0  0  0  0  0  0  0  0  0  0  0
   34.3704   23.9853   38.8617 N   0  0  0  0  0  0  0  0  0  0  0  0
   34.2005   23.0681   38.4564 H   0  0  0  0  0  0  0  0  0  0  0  0
   36.6524   30.3858   41.9477 S   0  0  0  0  0  0  0  0  0  0  0  0
   34.9712   29.7814   41.7533 C   0  0  0  0  0  0  0  0  0  0  0  0
   34.3034   30.4486   42.3372 H   0  0  0  0  0  0  0  0  0  0  0  0
   34.9320   28.7541   42.1725 H   0  0  0  0  0  0  0  0  0  0  0  0
   34.5905   29.7807   40.2651 C   0  0  0  0  0  0  0  0  0  0  0  0
   34.5904   30.8255   39.8907 H   0  0  0  0  0  0  0  0  0  0  0  0
   33.5493   29.3953   40.1829 H   0  0  0  0  0  0  0  0  0  0  0  0
   35.5240   28.8906   39.3995 C   0  0  0  0  0  0  0  0  0  0  0  0
   35.5424   27.9339   39.9763 H   0  0  0  0  0  0  0  0  0  0  0  0
   37.0095   29.3406   39.4507 C   0  0  0  0  0  0  0  0  0  0  0  0
   37.1209   30.3645   39.0373 H   0  0  0  0  0  0  0  0  0  0  0  0
   37.6145   28.6549   38.8156 H   0  0  0  0  0  0  0  0  0  0  0  0
   37.5998   29.3049   40.8685 C   0  0  0  0  0  0  0  0  0  0  0  0
   38.6512   29.6608   40.8736 H   0  0  0  0  0  0  0  0  0  0  0  0
   37.5508   28.2796   41.2916 H   0  0  0  0  0  0  0  0  0  0  0  0
   36.7243   31.7314   41.4388 O   0  0  0  0  0  0  0  0  0  0  0  0
   37.0529   30.0867   43.2979 O   0  0  0  0  0  0  0  0  0  0  0  0
  1  2  1  0
  1  3  1  0
  1  4  1  0
  1 19  1  0
  4  5  1  0
  4  6  1  0
  4 15  1  0
  7  8  1  0
  7  9  1  0
  7 10  1  0
  7 15  1  0
 10 11  1  0
 10 12  1  0
 10 19  1  0
 13 14  1  0
 13 17  2  0
 13 24  1  0
 16 32  1  0
 16 38  2  0
 16 39  1  0
 17 33  1  0
 17 34  1  0
 18 37  1  0
 18 40  2  0
 18 41  1  0
 19 20  1  0
 19 41  1  0
 21 22  1  0
 21 29  2  0
 21 30  1  0
 22 23  1  0
 22 32  2  0
 24 25  2  0
 24 35  1  0
 25 26  1  0
 25 27  1  0
 27 28  1  0
 27 33  2  0
 29 39  1  0
 29 40  1  0
 30 31  1  0
 30 37  2  0
 32 36  1  0
 33 36  1  0
 39 50  1  0
 41 42  1  0
 43 44  1  0
 43 55  1  0
 43 58  2  0
 43 59  2  0
 44 45  1  0
 44 46  1  0
 44 47  1  0
 47 48  1  0
 47 49  1  0
 47 50  1  0
 50 51  1  0
 50 52  1  0
 52 53  1  0
 52 54  1  0
 52 55  1  0
 55 56  1  0
 55 57  1  0
M  END
> <intraLJ>
32.294    

> <intraEL>
-16.805   

> <intraDihe>
25.532    

> <interLJ>
0.000     

> <interEJ>
0.000     

> <gridLJ>
-11.509   

> <gridEL>
0.000     

> <totalE>
29.513    

> <LGFE>
-11.509 

> <LE>
-0.329  

> <SMILES>
O=c1c(Oc2ccc(F)cc2F)cc2cnc(NC3CCOCC3)nc2n1C1CCS(=O)(=O)CC1

> <atom.dprop.GFE>
-0.2368 0.0000 0.0000 -0.1658 0.0000 0.0000 -0.1975 0.0000 0.0000 -0.3403 0.0000 0.0000 -0.1551 0.0000 -0.5820 0.0403 -0.2144 -0.0226 -0.1991 0.0000 -0.0645 0.0977 0.0000 -0.1972 -0.1570 0.0000 -0.1443 0.0000 -0.1732 -0.1117 0.0000 0.0768 -0.1373 -2.0180 -1.7410 -1.3430 -1.1750 -0.0150 -0.0579 -0.2210 -0.5050 0.0000 0.0000 -0.5771 0.0000 0.0000 -0.5778 0.0000 0.0000 -0.5305 0.0000 -0.0013 0.0000 0.0000 -0.1079 0.0000 0.0000 0.4120 -0.1660

> <atom.prop.CLASS>
PRPC NCLA NCLA PRPC NCLA NCLA PRPC NCLA NCLA PRPC NCLA NCLA BENC NCLA DMEO GEHC BENC GEHC PRPC NCLA BENC BENC NCLA BENC BENC NCLA BENC NCLA GEHC BENC NCLA BENC BENC FLBX FLBX DMEO IMIN FORO GEHC IMIN FORN NCLA NCLA PRPC NCLA NCLA PRPC NCLA NCLA PRPC NCLA PRPC NCLA NCLA PRPC NCLA NCLA FORO FORO

> <cluster_id>
1

> <rmsd_to_cluster_rep>
0.00    

> <ligRMSD>
1.34    

> <ligCOMD>
1.12    

$$$$
p38_goldstein_18_2r.C_19
     RDKit          3D

 56 59  0  0  0  0  0  0  0  0999 V2000
   36.6146   24.2605   40.2544 C   0  0  0  0  0  0  0  0  0  0  0  0
   37.1217   23.4324   39.7116 H   0  0  0  0  0  0  0  0  0  0  0  0
   36.9004   25.2185   39.7697 H   0  0  0  0  0  0  0  0  0  0  0  0
   37.0972   24.2635   41.7136 C   0  0  0  0  0  0  0  0  0  0  0  0
   36.6946   25.1599   42.2345 H   0  0  0  0  0  0  0  0  0  0  0  0
   38.2069   24.3255   41.7348 H   0  0  0  0  0  0  0  0  0  0  0  0
   35.2715   22.9597   42.4482 C   0  0  0  0  0  0  0  0  0  0  0  0
   35.0097   22.0526   43.0348 H   0  0  0  0  0  0  0  0  0  0  0  0
   34.8314   23.8411   42.9645 H   0  0  0  0  0  0  0  0  0  0  0  0
   34.6842   22.8400   41.0353 C   0  0  0  0  0  0  0  0  0  0  0  0
   33.5762   22.7726   41.1006 H   0  0  0  0  0  0  0  0  0  0  0  0
   35.0634   21.9075   40.5624 H   0  0  0  0  0  0  0  0  0  0  0  0
   30.9190   30.8041   33.2131 C   0  0  0  0  0  0  0  0  0  0  0  0
   29.8663   30.6272   33.3698 H   0  0  0  0  0  0  0  0  0  0  0  0
   36.6870   23.0934   42.4119 O   0  0  0  0  0  0  0  0  0  0  0  0
   34.1929   29.7648   37.2481 C   0  0  0  0  0  0  0  0  0  0  0  0
   31.8498   30.5637   34.2223 C   0  0  0  0  0  0  0  0  0  0  0  0
   34.5218   25.0092   37.9186 C   0  0  0  0  0  0  0  0  0  0  0  0
   35.0861   24.0537   40.1807 C   0  0  0  0  0  0  0  0  0  0  0  0
   34.6144   24.9307   40.6870 H   0  0  0  0  0  0  0  0  0  0  0  0
   34.2783   27.1070   36.2288 C   0  0  0  0  0  0  0  0  0  0  0  0
   34.1136   28.1897   35.3974 C   0  0  0  0  0  0  0  0  0  0  0  0
   34.0300   28.0134   34.3244 H   0  0  0  0  0  0  0  0  0  0  0  0
   31.3956   31.2823   31.9926 C   0  0  0  0  0  0  0  0  0  0  0  0
   32.7432   31.5395   31.7677 C   0  0  0  0  0  0  0  0  0  0  0  0
   33.0855   31.9207   30.8169 H   0  0  0  0  0  0  0  0  0  0  0  0
   33.6613   31.2947   32.7884 C   0  0  0  0  0  0  0  0  0  0  0  0
   34.7131   31.4841   32.6281 H   0  0  0  0  0  0  0  0  0  0  0  0
   34.5247   27.3464   37.6332 C   0  0  0  0  0  0  0  0  0  0  0  0
   34.1952   25.7872   35.7667 C   0  0  0  0  0  0  0  0  0  0  0  0
   34.0089   25.5827   34.7203 H   0  0  0  0  0  0  0  0  0  0  0  0
   34.1063   29.5014   35.8476 C   0  0  0  0  0  0  0  0  0  0  0  0
   33.2217   30.7813   34.0091 C   0  0  0  0  0  0  0  0  0  0  0  0
   31.3890   30.1230   35.4261 F   0  0  0  0  0  0  0  0  0  0  0  0
   30.5207   31.5066   30.9830 F   0  0  0  0  0  0  0  0  0  0  0  0
   34.1653   30.5501   34.9924 O   0  0  0  0  0  0  0  0  0  0  0  0
   34.3023   24.7380   36.5888 N   0  0  0  0  0  0  0  0  0  0  0  0
   34.0174   30.8911   37.7215 O   0  0  0  0  0  0  0  0  0  0  0  0
   34.5086   28.6827   38.0845 N   0  0  0  0  0  0  0  0  0  0  0  0
   34.8616   29.0066   39.4972 C   0  0  0  0  0  0  0  0  0  0  0  0
   34.5283   28.1440   40.1077 H   0  0  0  0  0  0  0  0  0  0  0  0
   34.1845   29.8523   39.7385 H   0  0  0  0  0  0  0  0  0  0  0  0
   36.3543   29.3627   39.8136 C   0  0  0  0  0  0  0  0  0  0  0  0
   36.7450   30.6498   39.0634 C   0  0  0  0  0  0  0  0  0  0  0  0
   37.8079   30.9090   39.2560 H   0  0  0  0  0  0  0  0  0  0  0  0
   36.1088   31.5016   39.3845 H   0  0  0  0  0  0  0  0  0  0  0  0
   36.6145   30.5066   37.9697 H   0  0  0  0  0  0  0  0  0  0  0  0
   37.3552   28.2543   39.4306 C   0  0  0  0  0  0  0  0  0  0  0  0
   38.3994   28.6151   39.5398 H   0  0  0  0  0  0  0  0  0  0  0  0
   37.2050   27.9535   38.3720 H   0  0  0  0  0  0  0  0  0  0  0  0
   37.2340   27.3609   40.0783 H   0  0  0  0  0  0  0  0  0  0  0  0
   36.5072   29.6092   41.2072 O   0  0  0  0  0  0  0  0  0  0  0  0
   37.4427   29.7777   41.3392 H   0  0  0  0  0  0  0  0  0  0  0  0
   34.6732   26.2623   38.4422 N   0  0  0  0  0  0  0  0  0  0  0  0
   34.5577   23.9480   38.7904 N   0  0  0  0  0  0  0  0  0  0  0  0
   34.4867   23.0185   38.3835 H   0  0  0  0  0  0  0  0  0  0  0  0
  1  2  1  0
  1  3  1  0
  1  4  1  0
  1 19  1  0
  4  5  1  0
  4  6  1  0
  4 15  1  0
  7  8  1  0
  7  9  1  0
  7 10  1  0
  7 15  1  0
 10 11  1  0
 10 12  1  0
 10 19  1  0
 13 14  1  0
 13 17  2  0
 13 24  1  0
 16 32  1  0
 16 38  2  0
 16 39  1  0
 17 33  1  0
 17 34  1  0
 18 37  1  0
 18 54  2  0
 18 55  1  0
 19 20  1  0
 19 55  1  0
 21 22  1  0
 21 29  2  0
 21 30  1  0
 22 23  1  0
 22 32  2  0
 24 25  2  0
 24 35  1  0
 25 26  1  0
 25 27  1  0
 27 28  1  0
 27 33  2  0
 29 39  1  0
 29 54  1  0
 30 31  1  0
 30 37  2  0
 32 36  1  0
 33 36  1  0
 39 40  1  0
 40 41  1  0
 40 42  1  0
 40 43  1  0
 43 44  1  0
 43 48  1  0
 43 52  1  0
 44 45  1  0
 44 46  1  0
 44 47  1  0
 48 49  1  0
 48 50  1  0
 48 51  1  0
 52 53  1  0
 55 56  1  0
M  END
> <intraLJ>
33.852    

> <intraEL>
-20.019   

> <intraDihe>
30.759    

> <interLJ>
0.000     

> <interEJ>
0.000     

> <gridLJ>
-12.060   

> <gridEL>
0.000     

> <totalE>
32.531    

> <LGFE>
-12.060 

> <LE>
-0.377  

> <SMILES>
CC(C)(O)Cn1c(=O)c(Oc2ccc(F)cc2F)cc2cnc(NC3CCOCC3)nc21

> <atom.dprop.GFE>
-0.2368 0.0000 0.0000 -0.1658 0.0000 0.0000 -0.1712 0.0000 0.0000 -0.3283 0.0000 0.0000 -0.1551 0.0000 -0.5820 0.0130 -0.2144 -0.0226 -0.1991 0.0000 -0.0645 0.0977 0.0000 -0.1972 -0.1570 0.0000 -0.1443 0.0000 -0.1732 -0.1184 0.0000 0.0768 -0.1373 -2.0180 -1.7410 -1.3430 -1.0790 -0.2220 -0.0676 -0.5305 0.0000 0.0000 -0.4229 -0.2657 0.0000 0.0000 0.0000 0.0167 0.0000 0.0000 0.0000 -0.7810 0.0000 -0.2210 -0.5050 0.0000

> <atom.prop.CLASS>
PRPC NCLA NCLA PRPC NCLA NCLA PRPC NCLA NCLA PRPC NCLA NCLA BENC NCLA DMEO GEHC BENC GEHC PRPC NCLA BENC BENC NCLA BENC BENC NCLA BENC NCLA GEHC BENC NCLA BENC BENC FLBX FLBX DMEO IMIN FORO GEHC PRPC NCLA NCLA PRPC PRPC NCLA NCLA NCLA PRPC NCLA NCLA NCLA MEOO NCLA IMIN FORN NCLA

> <cluster_id>
1

> <rmsd_to_cluster_rep>
0.00    

> <ligRMSD>
1.61    

> <ligCOMD>
1.18    

$$$$
p38_goldstein_19_2s_s.C_544
     RDKit          3D

 54 57  0  0  1  0  0  0  0  0999 V2000
   36.1318   24.6691   40.7618 C   0  0  0  0  0  0  0  0  0  0  0  0
   36.8565   23.9152   40.3818 H   0  0  0  0  0  0  0  0  0  0  0  0
   36.4411   25.6628   40.3776 H   0  0  0  0  0  0  0  0  0  0  0  0
   36.1826   24.6622   42.2979 C   0  0  0  0  0  0  0  0  0  0  0  0
   35.5429   25.4808   42.6950 H   0  0  0  0  0  0  0  0  0  0  0  0
   37.2256   24.8487   42.6338 H   0  0  0  0  0  0  0  0  0  0  0  0
   34.3962   23.1296   42.4732 C   0  0  0  0  0  0  0  0  0  0  0  0
   34.0951   22.1690   42.9446 H   0  0  0  0  0  0  0  0  0  0  0  0
   33.7303   23.9289   42.8665 H   0  0  0  0  0  0  0  0  0  0  0  0
   34.2352   23.0226   40.9515 C   0  0  0  0  0  0  0  0  0  0  0  0
   33.1668   22.8378   40.7048 H   0  0  0  0  0  0  0  0  0  0  0  0
   34.8315   22.1569   40.5872 H   0  0  0  0  0  0  0  0  0  0  0  0
   31.2126   30.9979   33.0875 C   0  0  0  0  0  0  0  0  0  0  0  0
   30.1624   30.8511   33.2868 H   0  0  0  0  0  0  0  0  0  0  0  0
   35.7417   23.4184   42.8314 O   0  0  0  0  0  0  0  0  0  0  0  0
   34.4274   29.9692   37.0770 C   0  0  0  0  0  0  0  0  0  0  0  0
   32.1759   30.7377   34.0626 C   0  0  0  0  0  0  0  0  0  0  0  0
   34.6425   25.2137   37.8816 C   0  0  0  0  0  0  0  0  0  0  0  0
   34.7181   24.3087   40.2594 C   0  0  0  0  0  0  0  0  0  0  0  0
   34.0333   25.1112   40.6179 H   0  0  0  0  0  0  0  0  0  0  0  0
   34.5778   27.2729   36.1161 C   0  0  0  0  0  0  0  0  0  0  0  0
   34.5505   28.3455   35.2532 C   0  0  0  0  0  0  0  0  0  0  0  0
   34.6369   28.1517   34.1833 H   0  0  0  0  0  0  0  0  0  0  0  0
   31.6514   31.4579   31.8467 C   0  0  0  0  0  0  0  0  0  0  0  0
   32.9971   31.6733   31.5699 C   0  0  0  0  0  0  0  0  0  0  0  0
   33.3133   32.0401   30.6045 H   0  0  0  0  0  0  0  0  0  0  0  0
   33.9480   31.4113   32.5584 C   0  0  0  0  0  0  0  0  0  0  0  0
   34.9966   31.5750   32.3557 H   0  0  0  0  0  0  0  0  0  0  0  0
   34.4917   27.5354   37.5282 C   0  0  0  0  0  0  0  0  0  0  0  0
   34.6924   25.9432   35.6855 C   0  0  0  0  0  0  0  0  0  0  0  0
   34.7639   25.7123   34.6307 H   0  0  0  0  0  0  0  0  0  0  0  0
   34.4589   29.6687   35.6667 C   0  0  0  0  0  0  0  0  0  0  0  0
   33.5472   30.9202   33.8039 C   0  0  0  0  0  0  0  0  0  0  0  0
   31.7432   30.3175   35.2828 F   0  0  0  0  0  0  0  0  0  0  0  0
   30.7399   31.7101   30.8745 F   0  0  0  0  0  0  0  0  0  0  0  0
   34.5287   30.6860   34.7691 O   0  0  0  0  0  0  0  0  0  0  0  0
   34.7405   24.9162   36.5443 N   0  0  0  0  0  0  0  0  0  0  0  0
   34.3984   31.1212   37.5231 O   0  0  0  0  0  0  0  0  0  0  0  0
   34.4168   28.8700   37.9568 N   0  0  0  0  0  0  0  0  0  0  0  0
   34.3735   29.1165   39.4220 C   0  0  0  0  0  0  0  0  0  0  0  0
   33.6108   28.3993   39.7948 H   0  0  0  0  0  0  0  0  0  0  0  0
   33.9416   30.1311   39.5396 H   0  0  0  0  0  0  0  0  0  0  0  0
   35.7299   28.9900   40.1618 C   0  0  1  0  0  0  0  0  0  0  0  0
   36.7125   30.1150   39.7698 C   0  0  0  0  0  0  0  0  0  0  0  0
   37.3589   29.8170   38.5359 O   0  0  0  0  0  0  0  0  0  0  0  0
   37.7511   28.9481   38.6617 H   0  0  0  0  0  0  0  0  0  0  0  0
   37.4828   30.2404   40.5611 H   0  0  0  0  0  0  0  0  0  0  0  0
   36.1605   31.0723   39.6559 H   0  0  0  0  0  0  0  0  0  0  0  0
   36.1985   28.0153   39.8952 H   0  0  0  0  0  0  0  0  0  0  0  0
   35.5512   29.0275   41.5761 O   0  0  0  0  0  0  0  0  0  0  0  0
   34.7635   28.5030   41.7565 H   0  0  0  0  0  0  0  0  0  0  0  0
   34.5251   26.4748   38.3777 N   0  0  0  0  0  0  0  0  0  0  0  0
   34.6338   24.1709   38.7771 N   0  0  0  0  0  0  0  0  0  0  0  0
   34.7936   23.2422   38.3944 H   0  0  0  0  0  0  0  0  0  0  0  0
  1  2  1  0
  1  3  1  0
  1  4  1  0
  1 19  1  0
  4  5  1  0
  4  6  1  0
  4 15  1  0
  7  8  1  0
  7  9  1  0
  7 10  1  0
  7 15  1  0
 10 11  1  0
 10 12  1  0
 10 19  1  0
 13 14  1  0
 13 17  2  0
 13 24  1  0
 16 32  1  0
 16 38  2  0
 16 39  1  0
 17 33  1  0
 17 34  1  0
 18 37  1  0
 18 52  2  0
 18 53  1  0
 19 20  1  0
 19 53  1  0
 21 22  1  0
 21 29  2  0
 21 30  1  0
 22 23  1  0
 22 32  2  0
 24 25  2  0
 24 35  1  0
 25 26  1  0
 25 27  1  0
 27 28  1  0
 27 33  2  0
 29 39  1  0
 29 52  1  0
 30 31  1  0
 30 37  2  0
 32 36  1  0
 33 36  1  0
 39 40  1  0
 40 41  1  0
 40 42  1  0
 40 43  1  0
 43 44  1  0
 43 49  1  1
 43 50  1  0
 44 45  1  0
 44 47  1  0
 44 48  1  0
 45 46  1  0
 50 51  1  0
 53 54  1  0
M  END
> <intraLJ>
31.917    

> <intraEL>
-13.667   

> <intraDihe>
29.669    

> <interLJ>
0.000     

> <interEJ>
0.000     

> <gridLJ>
-12.481   

> <gridEL>
0.000     

> <totalE>
35.438    

> <LGFE>
-12.481 

> <LE>
-0.390  

> <SMILES>
O=c1c(Oc2ccc(F)cc2F)cc2cnc(NC3CCOCC3)nc2n1C[C@H](O)CO

> <atom.dprop.GFE>
-0.2368 0.0000 0.0000 -0.0077 0.0000 0.0000 -0.2797 0.0000 0.0000 -0.3283 0.0000 0.0000 -0.1551 0.0000 -0.8070 0.1382 -0.2144 -0.0226 -0.3114 0.0000 -0.0645 0.0977 0.0000 -0.1972 0.2467 0.0000 0.0416 0.0000 -0.1732 -0.1186 0.0000 0.0616 -0.1231 -2.0180 -1.7410 -1.3430 -1.1750 -0.2220 0.0226 -0.4502 0.0000 0.0000 -0.6067 -0.3833 -0.2570 0.0000 0.0000 0.0000 0.0000 -1.1280 0.0000 -0.2210 -0.5050 0.0000

> <atom.prop.CLASS>
PRPC NCLA NCLA PRPC NCLA NCLA PRPC NCLA NCLA PRPC NCLA NCLA BENC NCLA DMEO GEHC BENC GEHC PRPC NCLA BENC BENC NCLA BENC BENC NCLA BENC NCLA GEHC BENC NCLA BENC BENC FLBX FLBX DMEO IMIN FORO GEHC PRPC NCLA NCLA PRPC PRPC MEOO NCLA NCLA NCLA NCLA MEOO NCLA IMIN FORN NCLA

> <cluster_id>
1

> <rmsd_to_cluster_rep>
0.00    

> <ligRMSD>
1.85    

> <ligCOMD>
1.27    

$$$$
p38_goldstein_20_2t.C_802
     RDKit          3D

 47 50  0  0  0  0  0  0  0  0999 V2000
   36.5868   24.1331   40.2473 C   0  0  0  0  0  0  0  0  0  0  0  0
   37.0850   23.3404   39.6460 H   0  0  0  0  0  0  0  0  0  0  0  0
   36.8442   25.1185   39.8039 H   0  0  0  0  0  0  0  0  0  0  0  0
   37.1086   24.0639   41.6880 C   0  0  0  0  0  0  0  0  0  0  0  0
   36.6990   24.9161   42.2737 H   0  0  0  0  0  0  0  0  0  0  0  0
   38.2168   24.1509   41.6844 H   0  0  0  0  0  0  0  0  0  0  0  0
   35.3336   22.6615   42.3888 C   0  0  0  0  0  0  0  0  0  0  0  0
   35.1176   21.7032   42.9092 H   0  0  0  0  0  0  0  0  0  0  0  0
   34.8868   23.4856   42.9874 H   0  0  0  0  0  0  0  0  0  0  0  0
   34.7018   22.6332   40.9932 C   0  0  0  0  0  0  0  0  0  0  0  0
   33.5971   22.5444   41.0879 H   0  0  0  0  0  0  0  0  0  0  0  0
   35.0778   21.7429   40.4422 H   0  0  0  0  0  0  0  0  0  0  0  0
   30.9106   30.6769   33.4953 C   0  0  0  0  0  0  0  0  0  0  0  0
   29.8725   30.3951   33.5780 H   0  0  0  0  0  0  0  0  0  0  0  0
   36.7436   22.8413   42.3191 O   0  0  0  0  0  0  0  0  0  0  0  0
   34.5508   29.7662   37.6661 C   0  0  0  0  0  0  0  0  0  0  0  0
   31.7941   30.5019   34.5611 C   0  0  0  0  0  0  0  0  0  0  0  0
   34.4076   24.9719   38.0469 C   0  0  0  0  0  0  0  0  0  0  0  0
   35.0623   23.9086   40.2215 C   0  0  0  0  0  0  0  0  0  0  0  0
   34.5956   24.7396   40.8038 H   0  0  0  0  0  0  0  0  0  0  0  0
   34.1169   27.1817   36.5109 C   0  0  0  0  0  0  0  0  0  0  0  0
   33.9588   28.3347   35.7731 C   0  0  0  0  0  0  0  0  0  0  0  0
   33.6807   28.2391   34.7229 H   0  0  0  0  0  0  0  0  0  0  0  0
   31.4151   31.2293   32.3179 C   0  0  0  0  0  0  0  0  0  0  0  0
   32.7451   31.6162   32.1909 C   0  0  0  0  0  0  0  0  0  0  0  0
   33.1114   32.0517   31.2729 H   0  0  0  0  0  0  0  0  0  0  0  0
   33.6129   31.4397   33.2704 C   0  0  0  0  0  0  0  0  0  0  0  0
   34.6475   31.7399   33.1872 H   0  0  0  0  0  0  0  0  0  0  0  0
   34.5194   27.3072   37.8878 C   0  0  0  0  0  0  0  0  0  0  0  0
   33.9079   25.8970   35.9883 C   0  0  0  0  0  0  0  0  0  0  0  0
   33.6220   25.7649   34.9531 H   0  0  0  0  0  0  0  0  0  0  0  0
   34.1421   29.6140   36.2918 C   0  0  0  0  0  0  0  0  0  0  0  0
   33.1480   30.8574   34.4526 C   0  0  0  0  0  0  0  0  0  0  0  0
   31.3073   29.9787   35.7193 F   0  0  0  0  0  0  0  0  0  0  0  0
   30.5873   31.3982   31.2569 F   0  0  0  0  0  0  0  0  0  0  0  0
   34.0326   30.7325   35.5204 O   0  0  0  0  0  0  0  0  0  0  0  0
   34.0610   24.7923   36.7299 N   0  0  0  0  0  0  0  0  0  0  0  0
   34.7529   30.8652   38.1917 O   0  0  0  0  0  0  0  0  0  0  0  0
   34.7356   28.5887   38.4097 N   0  0  0  0  0  0  0  0  0  0  0  0
   35.1230   28.6834   39.8404 C   0  0  0  0  0  0  0  0  0  0  0  0
   35.8186   27.8330   40.0171 H   0  0  0  0  0  0  0  0  0  0  0  0
   35.6987   29.6272   39.9419 H   0  0  0  0  0  0  0  0  0  0  0  0
   34.6456   26.1791   38.6284 N   0  0  0  0  0  0  0  0  0  0  0  0
   34.4958   23.8667   38.8498 N   0  0  0  0  0  0  0  0  0  0  0  0
   34.4131   22.9588   38.3990 H   0  0  0  0  0  0  0  0  0  0  0  0
   33.9749   28.6630   40.7643 C   0  0  0  0  0  0  0  0  0  0  0  0
   33.0496   28.6061   41.4939 N   0  0  0  0  0  0  0  0  0  0  0  0
  1  2  1  0
  1  3  1  0
  1  4  1  0
  1 19  1  0
  4  5  1  0
  4  6  1  0
  4 15  1  0
  7  8  1  0
  7  9  1  0
  7 10  1  0
  7 15  1  0
 10 11  1  0
 10 12  1  0
 10 19  1  0
 13 14  1  0
 13 17  2  0
 13 24  1  0
 16 32  1  0
 16 38  2  0
 16 39  1  0
 17 33  1  0
 17 34  1  0
 18 37  1  0
 18 43  2  0
 18 44  1  0
 19 20  1  0
 19 44  1  0
 21 22  1  0
 21 29  2  0
 21 30  1  0
 22 23  1  0
 22 32  2  0
 24 25  2  0
 24 35  1  0
 25 26  1  0
 25 27  1  0
 27 28  1  0
 27 33  2  0
 29 39  1  0
 29 43  1  0
 30 31  1  0
 30 37  2  0
 32 36  1  0
 33 36  1  0
 39 40  1  0
 40 41  1  0
 40 42  1  0
 40 46  1  0
 44 45  1  0
 46 47  3  0
M  END
> <intraLJ>
34.486    

> <intraEL>
-15.962   

> <intraDihe>
18.830    

> <interLJ>
0.000     

> <interEJ>
0.000     

> <gridLJ>
-10.732   

> <gridEL>
0.000     

> <totalE>
26.622    

> <LGFE>
-10.732 

> <LE>
-0.358  

> <SMILES>
N#CCn1c(=O)c(Oc2ccc(F)cc2F)cc2cnc(NC3CCOCC3)nc21

> <atom.dprop.GFE>
-0.2368 0.0000 0.0000 -0.1658 0.0000 0.0000 -0.1975 0.0000 0.0000 -0.3403 0.0000 0.0000 -0.1197 0.0000 -0.5820 0.0130 -0.2144 -0.0226 -0.1991 0.0000 -0.0645 0.0114 0.0000 -0.1972 -0.1570 0.0000 -0.1443 0.0000 -0.1795 -0.1117 0.0000 0.0768 -0.1231 -2.0180 -1.7410 -1.3430 -1.1750 -0.1660 -0.0676 -0.5408 0.0000 0.0000 -0.2210 -0.5050 0.0000 0.0000 0.0000

> <atom.prop.CLASS>
PRPC NCLA NCLA PRPC NCLA NCLA PRPC NCLA NCLA PRPC NCLA NCLA BENC NCLA DMEO GEHC BENC GEHC PRPC NCLA BENC BENC NCLA BENC BENC NCLA BENC NCLA GEHC BENC NCLA BENC BENC FLBX FLBX DMEO IMIN FORO GEHC PRPC NCLA NCLA IMIN FORN NCLA NCLA NCLA

> <cluster_id>
1

> <rmsd_to_cluster_rep>
0.00    

> <ligRMSD>
1.37    

> <ligCOMD>
1.16    

$$$$
p38_goldstein_21_2u.C_732
     RDKit          3D

 64 68  0  0  0  0  0  0  0  0999 V2000
   37.4794   24.3222   39.3830 C   0  0  0  0  0  0  0  0  0  0  0  0
   38.0594   23.7417   38.6316 H   0  0  0  0  0  0  0  0  0  0  0  0
   37.5169   25.3941   39.0952 H   0  0  0  0  0  0  0  0  0  0  0  0
   38.1373   24.1435   40.7581 C   0  0  0  0  0  0  0  0  0  0  0  0
   37.6359   24.8027   41.5005 H   0  0  0  0  0  0  0  0  0  0  0  0
   39.2058   24.4443   40.6987 H   0  0  0  0  0  0  0  0  0  0  0  0
   36.7179   22.3517   41.3443 C   0  0  0  0  0  0  0  0  0  0  0  0
   36.7202   21.3084   41.7282 H   0  0  0  0  0  0  0  0  0  0  0  0
   36.1971   22.9914   42.0903 H   0  0  0  0  0  0  0  0  0  0  0  0
   35.9700   22.4002   40.0072 C   0  0  0  0  0  0  0  0  0  0  0  0
   34.9132   22.0907   40.1621 H   0  0  0  0  0  0  0  0  0  0  0  0
   36.4448   21.6777   39.3064 H   0  0  0  0  0  0  0  0  0  0  0  0
   30.7294   30.5479   33.6073 C   0  0  0  0  0  0  0  0  0  0  0  0
   29.7316   30.2050   33.8338 H   0  0  0  0  0  0  0  0  0  0  0  0
   38.0616   22.7934   41.1993 O   0  0  0  0  0  0  0  0  0  0  0  0
   34.8875   29.7821   37.2270 C   0  0  0  0  0  0  0  0  0  0  0  0
   31.7590   30.4388   34.5414 C   0  0  0  0  0  0  0  0  0  0  0  0
   35.0920   24.9629   37.3567 C   0  0  0  0  0  0  0  0  0  0  0  0
   36.0218   23.8126   39.4016 C   0  0  0  0  0  0  0  0  0  0  0  0
   35.4493   24.4684   40.1014 H   0  0  0  0  0  0  0  0  0  0  0  0
   34.4929   27.2276   35.9911 C   0  0  0  0  0  0  0  0  0  0  0  0
   34.1996   28.4010   35.3316 C   0  0  0  0  0  0  0  0  0  0  0  0
   33.8401   28.3460   34.3032 H   0  0  0  0  0  0  0  0  0  0  0  0
   31.0297   31.1185   32.3720 C   0  0  0  0  0  0  0  0  0  0  0  0
   32.3018   31.5861   32.0611 C   0  0  0  0  0  0  0  0  0  0  0  0
   32.5091   32.0344   31.1006 H   0  0  0  0  0  0  0  0  0  0  0  0
   33.3213   31.4721   33.0088 C   0  0  0  0  0  0  0  0  0  0  0  0
   34.3145   31.8294   32.7779 H   0  0  0  0  0  0  0  0  0  0  0  0
   34.9955   27.3112   37.3379 C   0  0  0  0  0  0  0  0  0  0  0  0
   34.3315   25.9598   35.4135 C   0  0  0  0  0  0  0  0  0  0  0  0
   33.9643   25.8610   34.4005 H   0  0  0  0  0  0  0  0  0  0  0  0
   34.3590   29.6604   35.8925 C   0  0  0  0  0  0  0  0  0  0  0  0
   33.0659   30.8757   34.2471 C   0  0  0  0  0  0  0  0  0  0  0  0
   31.4494   29.9091   35.7563 F   0  0  0  0  0  0  0  0  0  0  0  0
   30.0495   31.2301   31.4416 F   0  0  0  0  0  0  0  0  0  0  0  0
   34.1196   30.7775   35.1605 O   0  0  0  0  0  0  0  0  0  0  0  0
   34.6355   24.8319   36.0694 N   0  0  0  0  0  0  0  0  0  0  0  0
   35.0763   30.8717   37.7767 O   0  0  0  0  0  0  0  0  0  0  0  0
   35.1768   28.5826   37.9035 N   0  0  0  0  0  0  0  0  0  0  0  0
   35.2795   26.1498   37.9861 N   0  0  0  0  0  0  0  0  0  0  0  0
   35.3569   23.8227   38.0701 N   0  0  0  0  0  0  0  0  0  0  0  0
   35.3014   22.9412   37.5661 H   0  0  0  0  0  0  0  0  0  0  0  0
   36.7321   29.6671   41.7568 N   0  0  0  0  0  0  0  0  0  0  0  0
   36.9932   31.2047   42.2853 S   0  0  0  0  0  0  0  0  0  0  0  0
   38.0194   30.9314   43.7252 C   0  0  0  0  0  0  0  0  0  0  0  0
   37.4810   30.2805   44.4461 H   0  0  0  0  0  0  0  0  0  0  0  0
   38.2445   31.9077   44.2036 H   0  0  0  0  0  0  0  0  0  0  0  0
   38.9690   30.4434   43.4204 H   0  0  0  0  0  0  0  0  0  0  0  0
   35.3662   29.1057   41.7356 C   0  0  0  0  0  0  0  0  0  0  0  0
   34.6970   29.5641   42.4946 H   0  0  0  0  0  0  0  0  0  0  0  0
   35.4330   28.0188   41.9590 H   0  0  0  0  0  0  0  0  0  0  0  0
   34.7881   29.3064   40.3258 C   0  0  0  0  0  0  0  0  0  0  0  0
   34.6633   30.3910   40.1242 H   0  0  0  0  0  0  0  0  0  0  0  0
   33.7855   28.8276   40.2777 H   0  0  0  0  0  0  0  0  0  0  0  0
   35.7234   28.6586   39.2798 C   0  0  0  0  0  0  0  0  0  0  0  0
   35.8563   27.6369   39.7139 H   0  0  0  0  0  0  0  0  0  0  0  0
   37.1587   29.2200   39.3807 C   0  0  0  0  0  0  0  0  0  0  0  0
   37.1787   30.2927   39.0961 H   0  0  0  0  0  0  0  0  0  0  0  0
   37.8272   28.6667   38.6848 H   0  0  0  0  0  0  0  0  0  0  0  0
   37.6904   29.0549   40.8128 C   0  0  0  0  0  0  0  0  0  0  0  0
   38.7048   29.5028   40.8945 H   0  0  0  0  0  0  0  0  0  0  0  0
   37.7728   27.9731   41.0557 H   0  0  0  0  0  0  0  0  0  0  0  0
   35.7548   31.7609   42.7657 O   0  0  0  0  0  0  0  0  0  0  0  0
   37.7720   31.9167   41.3059 O   0  0  0  0  0  0  0  0  0  0  0  0
  1  2  1  0
  1  3  1  0
  1  4  1  0
  1 19  1  0
  4  5  1  0
  4  6  1  0
  4 15  1  0
  7  8  1  0
  7  9  1  0
  7 10  1  0
  7 15  1  0
 10 11  1  0
 10 12  1  0
 10 19  1  0
 13 14  1  0
 13 17  2  0
 13 24  1  0
 16 32  1  0
 16 38  2  0
 16 39  1  0
 17 33  1  0
 17 34  1  0
 18 37  1  0
 18 40  2  0
 18 41  1  0
 19 20  1  0
 19 41  1  0
 21 22  1  0
 21 29  2  0
 21 30  1  0
 22 23  1  0
 22 32  2  0
 24 25  2  0
 24 35  1  0
 25 26  1  0
 25 27  1  0
 27 28  1  0
 27 33  2  0
 29 39  1  0
 29 40  1  0
 30 31  1  0
 30 37  2  0
 32 36  1  0
 33 36  1  0
 39 55  1  0
 41 42  1  0
 43 44  1  0
 43 49  1  0
 43 60  1  0
 44 45  1  0
 44 63  2  0
 44 64  2  0
 45 46  1  0
 45 47  1  0
 45 48  1  0
 49 50  1  0
 49 51  1  0
 49 52  1  0
 52 53  1  0
 52 54  1  0
 52 55  1  0
 55 56  1  0
 55 57  1  0
 57 58  1  0
 57 59  1  0
 57 60  1  0
 60 61  1  0
 60 62  1  0
M  END
> <intraLJ>
34.112    

> <intraEL>
-16.741   

> <intraDihe>
27.002    

> <interLJ>
0.000     

> <interEJ>
0.000     

> <gridLJ>
-11.265   

> <gridEL>
0.000     

> <totalE>
33.108    

> <LGFE>
-11.265 

> <LE>
-0.304  

> <SMILES>
CS(=O)(=O)N1CCC(n2c(=O)c(Oc3ccc(F)cc3F)cc3cnc(NC4CCOCC4)nc32)CC1

> <atom.dprop.GFE>
-0.5435 0.0000 0.0000 -0.4635 0.0000 0.0000 -0.1502 0.0000 0.0000 0.0190 0.0000 0.0000 -0.2331 0.0000 -0.1110 0.0403 -0.2144 -0.0989 -0.2667 0.0000 -0.0645 0.0977 0.0000 -0.1972 -0.1570 0.0000 -0.1443 0.0000 -0.0190 -0.1186 0.0000 0.0768 -0.1231 -2.0180 -1.7410 -1.3430 -1.1750 -0.1660 -0.0579 0.0260 -0.0150 0.0000 -0.9910 0.0000 0.1036 0.0000 0.0000 0.0000 -0.5771 0.0000 0.0000 -0.6067 0.0000 0.0000 -0.5075 0.0000 -0.0013 0.0000 0.0000 -0.1079 0.0000 0.0000 0.4960 0.0880

> <atom.prop.CLASS>
PRPC NCLA NCLA PRPC NCLA NCLA PRPC NCLA NCLA PRPC NCLA NCLA BENC NCLA DMEO GEHC BENC GEHC PRPC NCLA BENC BENC NCLA BENC BENC NCLA BENC NCLA GEHC BENC NCLA BENC BENC FLBX FLBX DMEO IMIN FORO GEHC IMIN FORN NCLA GENA NCLA PRPC NCLA NCLA NCLA PRPC NCLA NCLA PRPC NCLA NCLA PRPC NCLA PRPC NCLA NCLA PRPC NCLA NCLA FORO FORO

> <cluster_id>
1

> <rmsd_to_cluster_rep>
0.00    

> <ligRMSD>
1.47    

> <ligCOMD>
1.10    

$$$$
p38_goldstein_22_2v_525
     RDKit          3D

 35 37  0  0  0  0  0  0  0  0999 V2000
   34.3903   25.9555   35.9734 C   0  0  0  0  0  0  0  0  0  0  0  0
   34.4151   25.8661   34.8952 H   0  0  0  0  0  0  0  0  0  0  0  0
   34.2224   27.2809   38.0215 C   0  0  0  0  0  0  0  0  0  0  0  0
   34.5327   24.8311   36.6893 N   0  0  0  0  0  0  0  0  0  0  0  0
   34.2323   27.2099   36.5803 C   0  0  0  0  0  0  0  0  0  0  0  0
   34.0886   28.3843   35.8686 C   0  0  0  0  0  0  0  0  0  0  0  0
   34.1050   28.3310   34.7794 H   0  0  0  0  0  0  0  0  0  0  0  0
   33.9227   29.6323   36.4682 C   0  0  0  0  0  0  0  0  0  0  0  0
   33.9248   29.7263   37.9042 C   0  0  0  0  0  0  0  0  0  0  0  0
   34.4833   24.9527   38.0610 C   0  0  0  0  0  0  0  0  0  0  0  0
   34.7457   23.8012   40.3000 C   0  0  0  0  0  0  0  0  0  0  0  0
   34.2128   24.6370   40.8017 H   0  0  0  0  0  0  0  0  0  0  0  0
   35.8264   23.8704   40.5486 H   0  0  0  0  0  0  0  0  0  0  0  0
   34.3479   22.8543   40.7265 H   0  0  0  0  0  0  0  0  0  0  0  0
   33.0137   30.9078   34.6140 C   0  0  0  0  0  0  0  0  0  0  0  0
   33.5302   31.5980   33.5144 C   0  0  0  0  0  0  0  0  0  0  0  0
   34.5386   31.9846   33.5434 H   0  0  0  0  0  0  0  0  0  0  0  0
   32.7458   31.7712   32.3724 C   0  0  0  0  0  0  0  0  0  0  0  0
   33.1503   32.2913   31.5167 H   0  0  0  0  0  0  0  0  0  0  0  0
   31.4483   31.2699   32.3570 C   0  0  0  0  0  0  0  0  0  0  0  0
   30.8932   30.6056   33.4511 C   0  0  0  0  0  0  0  0  0  0  0  0
   29.8803   30.2353   33.4232 H   0  0  0  0  0  0  0  0  0  0  0  0
   31.6932   30.4381   34.5813 C   0  0  0  0  0  0  0  0  0  0  0  0
   30.7038   31.4364   31.2361 F   0  0  0  0  0  0  0  0  0  0  0  0
   31.1604   29.8045   35.6620 F   0  0  0  0  0  0  0  0  0  0  0  0
   33.8004   30.7844   35.7497 O   0  0  0  0  0  0  0  0  0  0  0  0
   33.8022   30.7914   38.5181 O   0  0  0  0  0  0  0  0  0  0  0  0
   34.0705   28.5346   38.6174 N   0  0  0  0  0  0  0  0  0  0  0  0
   34.0577   28.6512   40.0899 C   0  0  0  0  0  0  0  0  0  0  0  0
   34.1714   27.6930   40.6405 H   0  0  0  0  0  0  0  0  0  0  0  0
   33.1000   29.1022   40.4384 H   0  0  0  0  0  0  0  0  0  0  0  0
   34.8835   29.3138   40.4375 H   0  0  0  0  0  0  0  0  0  0  0  0
   34.3537   26.1309   38.7295 N   0  0  0  0  0  0  0  0  0  0  0  0
   34.5422   23.8174   38.8332 N   0  0  0  0  0  0  0  0  0  0  0  0
   34.7938   22.9321   38.3991 H   0  0  0  0  0  0  0  0  0  0  0  0
  1  2  1  0
  1  4  2  0
  1  5  1  0
  3  5  2  0
  3 28  1  0
  3 33  1  0
  4 10  1  0
  5  6  1  0
  6  7  1  0
  6  8  2  0
  8  9  1  0
  8 26  1  0
  9 27  2  0
  9 28  1  0
 10 33  2  0
 10 34  1  0
 11 12  1  0
 11 13  1  0
 11 14  1  0
 11 34  1  0
 15 16  2  0
 15 23  1  0
 15 26  1  0
 16 17  1  0
 16 18  1  0
 18 19  1  0
 18 20  2  0
 20 21  1  0
 20 24  1  0
 21 22  1  0
 21 23  2  0
 23 25  1  0
 28 29  1  0
 29 30  1  0
 29 31  1  0
 29 32  1  0
 34 35  1  0
M  END
> <intraLJ>
32.861    

> <intraEL>
-8.676    

> <intraDihe>
10.524    

> <interLJ>
0.000     

> <interEJ>
0.000     

> <gridLJ>
-9.366    

> <gridEL>
0.000     

> <totalE>
25.344    

> <LGFE>
-9.366  

> <LE>
-0.407  

> <SMILES>
CNc1ncc2cc(Oc3ccc(F)cc3F)c(=O)n(C)c2n1

> <atom.dprop.GFE>
-0.1117 0.0000 -0.1795 -1.1750 -0.0645 0.0114 0.0000 0.0768 0.0226 -0.0226 -0.3114 0.0000 0.0000 0.0000 -0.1231 -0.1443 0.0000 -0.1570 0.0000 -0.1972 -0.1197 0.0000 -0.2004 -1.7410 -2.0180 -1.3430 -0.2090 -0.0676 -0.5658 0.0000 0.0000 0.0000 -0.2210 -0.5050 0.0000

> <atom.prop.CLASS>
BENC NCLA GEHC IMIN BENC BENC NCLA BENC GEHC GEHC PRPC NCLA NCLA NCLA BENC BENC NCLA BENC NCLA BENC BENC NCLA BENC FLBX FLBX DMEO FORO GEHC PRPC NCLA NCLA NCLA IMIN FORN NCLA

> <cluster_id>
1

> <rmsd_to_cluster_rep>
0.00    

> <ligRMSD>
1.49    

> <ligCOMD>
1.20    

$$$$
p38_goldstein_23_2w_3fly_305
     RDKit          3D

 41 43  0  0  0  0  0  0  0  0999 V2000
   33.9496   26.0997   35.7356 C   0  0  0  0  0  0  0  0  0  0  0  0
   33.3847   25.9943   34.8187 H   0  0  0  0  0  0  0  0  0  0  0  0
   34.6581   27.3830   37.6919 C   0  0  0  0  0  0  0  0  0  0  0  0
   34.7168   25.0660   36.1098 N   0  0  0  0  0  0  0  0  0  0  0  0
   33.8776   27.2839   36.4843 C   0  0  0  0  0  0  0  0  0  0  0  0
   33.1008   28.3652   36.1231 C   0  0  0  0  0  0  0  0  0  0  0  0
   32.5175   28.2953   35.2043 H   0  0  0  0  0  0  0  0  0  0  0  0
   33.0216   29.5391   36.8716 C   0  0  0  0  0  0  0  0  0  0  0  0
   33.8021   29.6601   38.0742 C   0  0  0  0  0  0  0  0  0  0  0  0
   35.4224   25.2064   37.2844 C   0  0  0  0  0  0  0  0  0  0  0  0
   37.0879   24.2216   38.9177 C   0  0  0  0  0  0  0  0  0  0  0  0
   36.5910   24.7401   39.7718 H   0  0  0  0  0  0  0  0  0  0  0  0
   37.3999   22.8192   39.4655 C   0  0  0  0  0  0  0  0  0  0  0  0
   37.9397   22.2124   38.7089 H   0  0  0  0  0  0  0  0  0  0  0  0
   36.4594   22.2940   39.7397 H   0  0  0  0  0  0  0  0  0  0  0  0
   38.0321   22.8963   40.3756 H   0  0  0  0  0  0  0  0  0  0  0  0
   38.3604   25.0333   38.5952 C   0  0  0  0  0  0  0  0  0  0  0  0
   38.9464   24.5337   37.7952 H   0  0  0  0  0  0  0  0  0  0  0  0
   38.9994   25.1164   39.4998 H   0  0  0  0  0  0  0  0  0  0  0  0
   38.0979   26.0582   38.2573 H   0  0  0  0  0  0  0  0  0  0  0  0
   31.7698   30.7833   35.2088 C   0  0  0  0  0  0  0  0  0  0  0  0
   32.3766   31.7367   34.3877 C   0  0  0  0  0  0  0  0  0  0  0  0
   33.2370   32.2863   34.7413 H   0  0  0  0  0  0  0  0  0  0  0  0
   31.8791   31.9639   33.1033 C   0  0  0  0  0  0  0  0  0  0  0  0
   32.3574   32.6899   32.4626 H   0  0  0  0  0  0  0  0  0  0  0  0
   30.7676   31.2489   32.6690 C   0  0  0  0  0  0  0  0  0  0  0  0
   30.1203   30.3141   33.4776 C   0  0  0  0  0  0  0  0  0  0  0  0
   29.2523   29.7787   33.1257 H   0  0  0  0  0  0  0  0  0  0  0  0
   30.6345   30.0968   34.7558 C   0  0  0  0  0  0  0  0  0  0  0  0
   30.3038   31.4741   31.4151 F   0  0  0  0  0  0  0  0  0  0  0  0
   30.0063   29.1966   35.5611 F   0  0  0  0  0  0  0  0  0  0  0  0
   32.2620   30.6042   36.4919 O   0  0  0  0  0  0  0  0  0  0  0  0
   33.8041   30.6693   38.7864 O   0  0  0  0  0  0  0  0  0  0  0  0
   34.5857   28.5627   38.4340 N   0  0  0  0  0  0  0  0  0  0  0  0
   35.3716   28.6984   39.6780 C   0  0  0  0  0  0  0  0  0  0  0  0
   35.9850   27.8126   39.9489 H   0  0  0  0  0  0  0  0  0  0  0  0
   34.6998   28.8922   40.5458 H   0  0  0  0  0  0  0  0  0  0  0  0
   36.0762   29.5585   39.6041 H   0  0  0  0  0  0  0  0  0  0  0  0
   35.4250   26.3294   38.0525 N   0  0  0  0  0  0  0  0  0  0  0  0
   36.1524   24.1411   37.7545 N   0  0  0  0  0  0  0  0  0  0  0  0
   36.1783   23.3005   37.1822 H   0  0  0  0  0  0  0  0  0  0  0  0
  1  2  1  0
  1  4  2  0
  1  5  1  0
  3  5  2  0
  3 34  1  0
  3 39  1  0
  4 10  1  0
  5  6  1  0
  6  7  1  0
  6  8  2  0
  8  9  1  0
  8 32  1  0
  9 33  2  0
  9 34  1  0
 10 39  2  0
 10 40  1  0
 11 12  1  0
 11 13  1  0
 11 17  1  0
 11 40  1  0
 13 14  1  0
 13 15  1  0
 13 16  1  0
 17 18  1  0
 17 19  1  0
 17 20  1  0
 21 22  2  0
 21 29  1  0
 21 32  1  0
 22 23  1  0
 22 24  1  0
 24 25  1  0
 24 26  2  0
 26 27  1  0
 26 30  1  0
 27 28  1  0
 27 29  2  0
 29 31  1  0
 34 35  1  0
 35 36  1  0
 35 37  1  0
 35 38  1  0
 40 41  1  0
M  END
> <intraLJ>
33.699    

> <intraEL>
-13.148   

> <intraDihe>
15.101    

> <interLJ>
0.000     

> <interEJ>
0.000     

> <gridLJ>
-10.369   

> <gridEL>
0.000     

> <totalE>
25.283    

> <LGFE>
-10.369 

> <LE>
-0.415  

> <SMILES>
CC(C)Nc1ncc2cc(Oc3ccc(F)cc3F)c(=O)n(C)c2n1

> <atom.dprop.GFE>
-0.1186 0.0000 -0.1732 -1.1750 -0.0645 0.0361 0.0000 0.1134 0.0226 -0.0989 -0.5435 0.0000 -0.3733 0.0000 0.0000 0.0000 -0.6580 0.0000 0.0000 0.0000 -0.1740 -0.1733 0.0000 -0.1089 0.0000 -0.1972 -0.2331 0.0000 -0.2044 -1.7410 -1.9990 -0.8260 -0.6960 -0.0676 -0.5075 0.0000 0.0000 0.0000 0.0260 -0.4340 0.0000

> <atom.prop.CLASS>
BENC NCLA GEHC IMIN BENC BENC NCLA BENC GEHC GEHC PRPC NCLA PRPC NCLA NCLA NCLA PRPC NCLA NCLA NCLA BENC BENC NCLA BENC NCLA BENC BENC NCLA BENC FLBX FLBX DMEO FORO GEHC PRPC NCLA NCLA NCLA IMIN FORN NCLA

> <cluster_id>
1

> <rmsd_to_cluster_rep>
0.00    

> <ligRMSD>
1.42    

> <ligCOMD>
0.87    

$$$$
p38_goldstein_24_2x_828
     RDKit          3D

 43 46  0  0  1  0  0  0  0  0999 V2000
   34.0124   26.1035   35.7919 C   0  0  0  0  0  0  0  0  0  0  0  0
   33.5172   25.8106   34.8752 H   0  0  0  0  0  0  0  0  0  0  0  0
   34.7455   27.8012   37.3953 C   0  0  0  0  0  0  0  0  0  0  0  0
   34.5703   25.1343   36.5269 N   0  0  0  0  0  0  0  0  0  0  0  0
   34.0616   27.4518   36.1746 C   0  0  0  0  0  0  0  0  0  0  0  0
   33.4881   28.4640   35.4383 C   0  0  0  0  0  0  0  0  0  0  0  0
   32.9794   28.1994   34.5107 H   0  0  0  0  0  0  0  0  0  0  0  0
   33.5228   29.8041   35.8170 C   0  0  0  0  0  0  0  0  0  0  0  0
   34.2125   30.1767   37.0247 C   0  0  0  0  0  0  0  0  0  0  0  0
   35.1820   25.5259   37.6926 C   0  0  0  0  0  0  0  0  0  0  0  0
   32.0168   30.5656   34.0762 C   0  0  0  0  0  0  0  0  0  0  0  0
   32.2786   31.0227   32.7823 C   0  0  0  0  0  0  0  0  0  0  0  0
   33.2209   31.5012   32.5579 H   0  0  0  0  0  0  0  0  0  0  0  0
   31.3256   30.8457   31.7775 C   0  0  0  0  0  0  0  0  0  0  0  0
   31.5334   31.1868   30.7741 H   0  0  0  0  0  0  0  0  0  0  0  0
   30.1166   30.2318   32.0883 C   0  0  0  0  0  0  0  0  0  0  0  0
   29.8137   29.7922   33.3772 C   0  0  0  0  0  0  0  0  0  0  0  0
   28.8651   29.3290   33.5997 H   0  0  0  0  0  0  0  0  0  0  0  0
   30.7795   29.9736   34.3670 C   0  0  0  0  0  0  0  0  0  0  0  0
   29.2064   30.0580   31.0985 F   0  0  0  0  0  0  0  0  0  0  0  0
   30.4926   29.5625   35.6327 F   0  0  0  0  0  0  0  0  0  0  0  0
   32.9639   30.7912   35.0641 O   0  0  0  0  0  0  0  0  0  0  0  0
   34.3074   31.3414   37.4248 O   0  0  0  0  0  0  0  0  0  0  0  0
   34.7922   29.1462   37.7665 N   0  0  0  0  0  0  0  0  0  0  0  0
   35.4845   29.5463   39.0091 C   0  0  0  0  0  0  0  0  0  0  0  0
   35.9364   28.7113   39.5862 H   0  0  0  0  0  0  0  0  0  0  0  0
   34.7798   30.0624   39.7012 H   0  0  0  0  0  0  0  0  0  0  0  0
   36.3117   30.2585   38.7848 H   0  0  0  0  0  0  0  0  0  0  0  0
   35.3013   26.8098   38.1264 N   0  0  0  0  0  0  0  0  0  0  0  0
   35.7056   24.5718   38.5126 N   0  0  0  0  0  0  0  0  0  0  0  0
   35.6479   23.5984   38.2236 H   0  0  0  0  0  0  0  0  0  0  0  0
   38.6940   24.2494   39.1057 O   0  0  0  0  0  0  0  0  0  0  0  0
   37.8974   25.4067   39.3676 C   0  0  0  0  0  0  0  0  0  0  0  0
   37.9344   26.0671   38.4904 H   0  0  0  0  0  0  0  0  0  0  0  0
   38.3515   25.9382   40.2172 H   0  0  0  0  0  0  0  0  0  0  0  0
   36.5197   24.8583   39.7083 C   0  0  2  0  0  0  0  0  0  0  0  0
   35.9408   25.5441   40.3503 H   0  0  0  0  0  0  0  0  0  0  0  0
   36.8575   23.5997   40.4775 C   0  0  0  0  0  0  0  0  0  0  0  0
   36.0527   22.8522   40.4953 H   0  0  0  0  0  0  0  0  0  0  0  0
   37.0858   23.8469   41.5275 H   0  0  0  0  0  0  0  0  0  0  0  0
   38.1141   23.1120   39.7590 C   0  0  0  0  0  0  0  0  0  0  0  0
   37.8789   22.3750   38.9768 H   0  0  0  0  0  0  0  0  0  0  0  0
   38.8597   22.6701   40.4340 H   0  0  0  0  0  0  0  0  0  0  0  0
  1  2  1  0
  1  4  2  0
  1  5  1  0
  3  5  2  0
  3 24  1  0
  3 29  1  0
  4 10  1  0
  5  6  1  0
  6  7  1  0
  6  8  2  0
  8  9  1  0
  8 22  1  0
  9 23  2  0
  9 24  1  0
 10 29  2  0
 10 30  1  0
 11 12  2  0
 11 19  1  0
 11 22  1  0
 12 13  1  0
 12 14  1  0
 14 15  1  0
 14 16  2  0
 16 17  1  0
 16 20  1  0
 17 18  1  0
 17 19  2  0
 19 21  1  0
 24 25  1  0
 25 26  1  0
 25 27  1  0
 25 28  1  0
 30 31  1  0
 30 36  1  0
 32 33  1  0
 32 41  1  0
 33 34  1  0
 33 35  1  0
 33 36  1  0
 36 37  1  1
 36 38  1  0
 38 39  1  0
 38 40  1  0
 38 41  1  0
 41 42  1  0
 41 43  1  0
M  END
> <intraLJ>
34.222    

> <intraEL>
-14.035   

> <intraDihe>
19.223    

> <interLJ>
0.000     

> <interEJ>
0.000     

> <gridLJ>
-10.880   

> <gridEL>
0.000     

> <totalE>
28.529    

> <LGFE>
-10.880 

> <LE>
-0.403  

> <SMILES>
Cn1c(=O)c(Oc2ccc(F)cc2F)cc2cnc(N[C@H]3CCOC3)nc21

> <atom.dprop.GFE>
-0.1117 0.0000 -0.1465 -1.1750 -0.0645 0.0893 0.0000 0.0711 0.1382 -0.0989 -0.2144 -0.2153 0.0000 -0.1972 0.0000 -0.1384 -0.2331 0.0000 -0.2004 -1.5710 -1.9990 -1.1680 -0.2220 -0.0596 -0.5305 0.0000 0.0000 0.0000 -0.2720 -0.0150 0.0000 -1.1600 -0.6200 0.0000 0.0000 -0.2028 0.0000 -0.3057 0.0000 0.0000 -0.2577 0.0000 0.0000

> <atom.prop.CLASS>
BENC NCLA GEHC IMIN BENC BENC NCLA BENC GEHC GEHC BENC BENC NCLA BENC NCLA BENC BENC NCLA BENC FLBX FLBX DMEO FORO GEHC PRPC NCLA NCLA NCLA IMIN FORN NCLA DMEO PRPC NCLA NCLA PRPC NCLA PRPC NCLA NCLA PRPC NCLA NCLA

> <cluster_id>
1

> <rmsd_to_cluster_rep>
0.00    

> <ligRMSD>
1.10    

> <ligCOMD>
0.95    

$$$$
p38_goldstein_25_2y.C_823
     RDKit          3D

 45 47  0  0  0  0  0  0  0  0999 V2000
   30.1660   30.0104   33.2467 C   0  0  0  0  0  0  0  0  0  0  0  0
   29.2323   29.4697   33.2440 H   0  0  0  0  0  0  0  0  0  0  0  0
   34.1263   29.6444   37.3793 C   0  0  0  0  0  0  0  0  0  0  0  0
   31.0238   29.9656   34.3466 C   0  0  0  0  0  0  0  0  0  0  0  0
   35.2376   24.9895   37.0876 C   0  0  0  0  0  0  0  0  0  0  0  0
   36.4355   23.9149   39.0190 C   0  0  0  0  0  0  0  0  0  0  0  0
   36.3146   22.9493   39.5558 H   0  0  0  0  0  0  0  0  0  0  0  0
   35.9645   24.7068   39.6436 H   0  0  0  0  0  0  0  0  0  0  0  0
   37.9522   24.1565   38.9361 C   0  0  0  0  0  0  0  0  0  0  0  0
   38.5768   24.0944   40.3411 C   0  0  0  0  0  0  0  0  0  0  0  0
   38.4175   23.0889   40.7856 H   0  0  0  0  0  0  0  0  0  0  0  0
   38.1130   24.8502   41.0101 H   0  0  0  0  0  0  0  0  0  0  0  0
   39.6698   24.2850   40.2925 H   0  0  0  0  0  0  0  0  0  0  0  0
   38.1673   25.4554   38.3968 O   0  0  0  0  0  0  0  0  0  0  0  0
   39.1194   25.5625   38.3469 H   0  0  0  0  0  0  0  0  0  0  0  0
   38.6003   23.1111   38.0029 C   0  0  0  0  0  0  0  0  0  0  0  0
   38.4106   22.0874   38.3899 H   0  0  0  0  0  0  0  0  0  0  0  0
   39.6983   23.2658   37.9485 H   0  0  0  0  0  0  0  0  0  0  0  0
   38.1880   23.1772   36.9743 H   0  0  0  0  0  0  0  0  0  0  0  0
   34.1740   27.1792   35.9285 C   0  0  0  0  0  0  0  0  0  0  0  0
   33.6438   28.3235   35.3768 C   0  0  0  0  0  0  0  0  0  0  0  0
   33.2597   28.2739   34.3573 H   0  0  0  0  0  0  0  0  0  0  0  0
   30.5559   30.7787   32.1497 C   0  0  0  0  0  0  0  0  0  0  0  0
   31.7460   31.4984   32.1347 C   0  0  0  0  0  0  0  0  0  0  0  0
   32.0229   32.0955   31.2784 H   0  0  0  0  0  0  0  0  0  0  0  0
   32.5888   31.4468   33.2469 C   0  0  0  0  0  0  0  0  0  0  0  0
   33.5140   32.0048   33.2503 H   0  0  0  0  0  0  0  0  0  0  0  0
   34.7037   27.2533   37.2666 C   0  0  0  0  0  0  0  0  0  0  0  0
   34.2204   25.9516   35.2533 C   0  0  0  0  0  0  0  0  0  0  0  0
   33.8287   25.8610   34.2485 H   0  0  0  0  0  0  0  0  0  0  0  0
   33.5799   29.5418   36.0477 C   0  0  0  0  0  0  0  0  0  0  0  0
   32.2448   30.6597   34.3492 C   0  0  0  0  0  0  0  0  0  0  0  0
   35.2195   28.5242   39.2995 C   0  0  0  0  0  0  0  0  0  0  0  0
   35.1611   29.5252   39.7792 H   0  0  0  0  0  0  0  0  0  0  0  0
   36.2962   28.2364   39.3016 H   0  0  0  0  0  0  0  0  0  0  0  0
   34.6813   27.8198   39.9750 H   0  0  0  0  0  0  0  0  0  0  0  0
   30.6418   29.2325   35.4276 F   0  0  0  0  0  0  0  0  0  0  0  0
   29.7532   30.8310   31.0575 F   0  0  0  0  0  0  0  0  0  0  0  0
   33.0904   30.6673   35.4570 O   0  0  0  0  0  0  0  0  0  0  0  0
   34.7452   24.8550   35.8114 N   0  0  0  0  0  0  0  0  0  0  0  0
   34.1339   30.6917   38.0329 O   0  0  0  0  0  0  0  0  0  0  0  0
   34.6602   28.4766   37.9322 N   0  0  0  0  0  0  0  0  0  0  0  0
   35.2319   26.1376   37.8168 N   0  0  0  0  0  0  0  0  0  0  0  0
   35.7711   23.8910   37.6893 N   0  0  0  0  0  0  0  0  0  0  0  0
   35.7693   23.0123   37.1762 H   0  0  0  0  0  0  0  0  0  0  0  0
  1  2  1  0
  1  4  2  0
  1 23  1  0
  3 31  1  0
  3 41  2  0
  3 42  1  0
  4 32  1  0
  4 37  1  0
  5 40  1  0
  5 43  2  0
  5 44  1  0
  6  7  1  0
  6  8  1  0
  6  9  1  0
  6 44  1  0
  9 10  1  0
  9 14  1  0
  9 16  1  0
 10 11  1  0
 10 12  1  0
 10 13  1  0
 14 15  1  0
 16 17  1  0
 16 18  1  0
 16 19  1  0
 20 21  1  0
 20 28  2  0
 20 29  1  0
 21 22  1  0
 21 31  2  0
 23 24  2  0
 23 38  1  0
 24 25  1  0
 24 26  1  0
 26 27  1  0
 26 32  2  0
 28 42  1  0
 28 43  1  0
 29 30  1  0
 29 40  2  0
 31 39  1  0
 32 39  1  0
 33 34  1  0
 33 35  1  0
 33 36  1  0
 33 42  1  0
 44 45  1  0
M  END
> <intraLJ>
36.424    

> <intraEL>
-13.499   

> <intraDihe>
16.973    

> <interLJ>
0.000     

> <interEJ>
0.000     

> <gridLJ>
-11.106   

> <gridEL>
0.000     

> <totalE>
28.791    

> <LGFE>
-11.106 

> <LE>
-0.411  

> <SMILES>
Cn1c(=O)c(Oc2ccc(F)cc2F)cc2cnc(NCC(C)(C)O)nc21

> <atom.dprop.GFE>
-0.2331 0.0000 0.0130 -0.2004 -0.0989 -0.2667 0.0000 0.0000 -0.6057 -0.4635 0.0000 0.0000 0.0000 -0.8450 0.0000 -0.1732 0.0000 0.0000 0.0000 -0.0645 0.0893 0.0000 -0.1384 -0.1972 0.0000 -0.2153 0.0000 -0.1732 -0.1186 0.0000 0.0745 -0.2144 -0.5075 0.0000 0.0000 0.0000 -1.9990 -1.7410 -1.1680 -1.1750 -0.2090 -0.0676 0.0260 -0.4340 0.0000

> <atom.prop.CLASS>
BENC NCLA GEHC BENC GEHC PRPC NCLA NCLA PRPC PRPC NCLA NCLA NCLA MEOO NCLA PRPC NCLA NCLA NCLA BENC BENC NCLA BENC BENC NCLA BENC NCLA GEHC BENC NCLA BENC BENC PRPC NCLA NCLA NCLA FLBX FLBX DMEO IMIN FORO GEHC IMIN FORN NCLA

> <cluster_id>
1

> <rmsd_to_cluster_rep>
0.00    

> <ligRMSD>
1.75    

> <ligCOMD>
1.01    

$$$$
p38_goldstein_26_2z_194
     RDKit          3D

 45 47  0  0  0  0  0  0  0  0999 V2000
   33.8852   26.0932   35.7472 C   0  0  0  0  0  0  0  0  0  0  0  0
   33.2562   25.9406   34.8807 H   0  0  0  0  0  0  0  0  0  0  0  0
   34.7214   27.4716   37.5808 C   0  0  0  0  0  0  0  0  0  0  0  0
   34.6806   25.0759   36.1232 N   0  0  0  0  0  0  0  0  0  0  0  0
   33.8385   27.3045   36.4604 C   0  0  0  0  0  0  0  0  0  0  0  0
   32.9956   28.3521   36.1575 C   0  0  0  0  0  0  0  0  0  0  0  0
   32.3490   28.2496   35.2856 H   0  0  0  0  0  0  0  0  0  0  0  0
   32.9414   29.5404   36.8909 C   0  0  0  0  0  0  0  0  0  0  0  0
   33.7847   29.6977   38.0461 C   0  0  0  0  0  0  0  0  0  0  0  0
   35.4626   25.2727   37.2458 C   0  0  0  0  0  0  0  0  0  0  0  0
   37.2741   24.2736   38.8536 C   0  0  0  0  0  0  0  0  0  0  0  0
   36.8039   24.8740   40.2361 C   0  0  0  0  0  0  0  0  0  0  0  0
   37.7619   24.7676   41.2794 O   0  0  0  0  0  0  0  0  0  0  0  0
   37.3743   25.2035   42.0423 H   0  0  0  0  0  0  0  0  0  0  0  0
   35.8663   24.3805   40.5662 H   0  0  0  0  0  0  0  0  0  0  0  0
   36.6473   25.9622   40.1373 H   0  0  0  0  0  0  0  0  0  0  0  0
   37.7428   22.8214   39.0955 C   0  0  0  0  0  0  0  0  0  0  0  0
   38.0957   22.3610   38.1485 H   0  0  0  0  0  0  0  0  0  0  0  0
   36.9105   22.2072   39.5000 H   0  0  0  0  0  0  0  0  0  0  0  0
   38.5843   22.7923   39.8188 H   0  0  0  0  0  0  0  0  0  0  0  0
   38.4759   25.1060   38.3515 C   0  0  0  0  0  0  0  0  0  0  0  0
   38.8879   24.6737   37.4155 H   0  0  0  0  0  0  0  0  0  0  0  0
   38.1676   26.1542   38.1519 H   0  0  0  0  0  0  0  0  0  0  0  0
   39.2834   25.1184   39.1136 H   0  0  0  0  0  0  0  0  0  0  0  0
   31.6994   30.7742   35.2281 C   0  0  0  0  0  0  0  0  0  0  0  0
   32.3558   31.6910   34.4037 C   0  0  0  0  0  0  0  0  0  0  0  0
   33.2264   32.2189   34.7652 H   0  0  0  0  0  0  0  0  0  0  0  0
   31.8853   31.9158   33.1085 C   0  0  0  0  0  0  0  0  0  0  0  0
   32.3938   32.6200   32.4668 H   0  0  0  0  0  0  0  0  0  0  0  0
   30.7587   31.2288   32.6666 C   0  0  0  0  0  0  0  0  0  0  0  0
   30.0757   30.3181   33.4721 C   0  0  0  0  0  0  0  0  0  0  0  0
   29.2001   29.8012   33.1114 H   0  0  0  0  0  0  0  0  0  0  0  0
   30.5611   30.1049   34.7606 C   0  0  0  0  0  0  0  0  0  0  0  0
   30.3104   31.4599   31.4088 F   0  0  0  0  0  0  0  0  0  0  0  0
   29.8988   29.2291   35.5655 F   0  0  0  0  0  0  0  0  0  0  0  0
   32.1621   30.5896   36.5187 O   0  0  0  0  0  0  0  0  0  0  0  0
   33.7710   30.6927   38.7788 O   0  0  0  0  0  0  0  0  0  0  0  0
   34.6634   28.6550   38.3210 N   0  0  0  0  0  0  0  0  0  0  0  0
   35.5111   28.8035   39.5218 C   0  0  0  0  0  0  0  0  0  0  0  0
   36.4769   28.2598   39.4442 H   0  0  0  0  0  0  0  0  0  0  0  0
   34.9791   28.4359   40.4287 H   0  0  0  0  0  0  0  0  0  0  0  0
   35.7991   29.8627   39.7096 H   0  0  0  0  0  0  0  0  0  0  0  0
   35.5293   26.4493   37.9126 N   0  0  0  0  0  0  0  0  0  0  0  0
   36.2173   24.2302   37.7554 N   0  0  0  0  0  0  0  0  0  0  0  0
   36.1887   23.3695   37.2138 H   0  0  0  0  0  0  0  0  0  0  0  0
  1  2  1  0
  1  4  2  0
  1  5  1  0
  3  5  2  0
  3 38  1  0
  3 43  1  0
  4 10  1  0
  5  6  1  0
  6  7  1  0
  6  8  2  0
  8  9  1  0
  8 36  1  0
  9 37  2  0
  9 38  1  0
 10 43  2  0
 10 44  1  0
 11 12  1  0
 11 17  1  0
 11 21  1  0
 11 44  1  0
 12 13  1  0
 12 15  1  0
 12 16  1  0
 13 14  1  0
 17 18  1  0
 17 19  1  0
 17 20  1  0
 21 22  1  0
 21 23  1  0
 21 24  1  0
 25 26  2  0
 25 33  1  0
 25 36  1  0
 26 27  1  0
 26 28  1  0
 28 29  1  0
 28 30  2  0
 30 31  1  0
 30 34  1  0
 31 32  1  0
 31 33  2  0
 33 35  1  0
 38 39  1  0
 39 40  1  0
 39 41  1  0
 39 42  1  0
 44 45  1  0
M  END
> <intraLJ>
34.911    

> <intraEL>
-12.410   

> <intraDihe>
17.168    

> <interLJ>
0.000     

> <interEJ>
0.000     

> <gridLJ>
-11.083   

> <gridEL>
0.000     

> <totalE>
28.587    

> <LGFE>
-11.083 

> <LE>
-0.410  

> <SMILES>
Cn1c(=O)c(Oc2ccc(F)cc2F)cc2cnc(NC(C)(C)CO)nc21

> <atom.dprop.GFE>
-0.1186 0.0000 -0.1732 -1.1750 -0.0645 0.0361 0.0000 0.1134 0.0226 -0.0989 -0.5435 -0.3556 -0.3810 0.0000 0.0000 0.0000 -0.3733 0.0000 0.0000 0.0000 -0.6580 0.0000 0.0000 0.0000 -0.1286 -0.1733 0.0000 -0.1089 0.0000 -0.1972 -0.2331 0.0000 -0.2044 -1.7410 -1.9990 -0.8260 -0.6960 -0.0676 -0.5305 0.0000 0.0000 0.0000 0.0260 -0.4340 0.0000

> <atom.prop.CLASS>
BENC NCLA GEHC IMIN BENC BENC NCLA BENC GEHC GEHC PRPC PRPC MEOO NCLA NCLA NCLA PRPC NCLA NCLA NCLA PRPC NCLA NCLA NCLA BENC BENC NCLA BENC NCLA BENC BENC NCLA BENC FLBX FLBX DMEO FORO GEHC PRPC NCLA NCLA NCLA IMIN FORN NCLA

> <cluster_id>
1

> <rmsd_to_cluster_rep>
0.00    

> <ligRMSD>
1.45    

> <ligCOMD>
0.83    

$$$$
p38_goldstein_27_2aa_1210
     RDKit          3D

 43 45  0  0  0  0  0  0  0  0999 V2000
   33.8814   26.2030   35.6905 C   0  0  0  0  0  0  0  0  0  0  0  0
   33.3311   26.1147   34.7630 H   0  0  0  0  0  0  0  0  0  0  0  0
   34.5847   27.4629   37.6641 C   0  0  0  0  0  0  0  0  0  0  0  0
   34.6191   25.1502   36.0733 N   0  0  0  0  0  0  0  0  0  0  0  0
   33.8208   27.3850   36.4446 C   0  0  0  0  0  0  0  0  0  0  0  0
   33.0717   28.4840   36.0778 C   0  0  0  0  0  0  0  0  0  0  0  0
   32.5027   28.4304   35.1491 H   0  0  0  0  0  0  0  0  0  0  0  0
   33.0049   29.6569   36.8294 C   0  0  0  0  0  0  0  0  0  0  0  0
   33.7694   29.7568   38.0457 C   0  0  0  0  0  0  0  0  0  0  0  0
   35.3057   25.2685   37.2624 C   0  0  0  0  0  0  0  0  0  0  0  0
   36.8860   24.2372   38.9639 C   0  0  0  0  0  0  0  0  0  0  0  0
   36.3420   24.7336   39.8004 H   0  0  0  0  0  0  0  0  0  0  0  0
   37.1574   22.7953   39.4639 C   0  0  0  0  0  0  0  0  0  0  0  0
   37.7209   22.2244   38.6961 H   0  0  0  0  0  0  0  0  0  0  0  0
   36.1911   22.2791   39.6548 H   0  0  0  0  0  0  0  0  0  0  0  0
   37.8928   22.7934   40.6833 O   0  0  0  0  0  0  0  0  0  0  0  0
   38.0411   21.8734   40.9134 H   0  0  0  0  0  0  0  0  0  0  0  0
   38.1702   25.0722   38.6876 C   0  0  0  0  0  0  0  0  0  0  0  0
   38.9247   24.4365   38.1771 H   0  0  0  0  0  0  0  0  0  0  0  0
   38.7430   25.5911   39.8846 O   0  0  0  0  0  0  0  0  0  0  0  0
   39.5522   26.0406   39.6303 H   0  0  0  0  0  0  0  0  0  0  0  0
   37.9264   25.9313   38.0266 H   0  0  0  0  0  0  0  0  0  0  0  0
   31.7767   30.9097   35.1531 C   0  0  0  0  0  0  0  0  0  0  0  0
   32.4414   31.7810   34.2863 C   0  0  0  0  0  0  0  0  0  0  0  0
   33.3501   32.2714   34.6043 H   0  0  0  0  0  0  0  0  0  0  0  0
   31.9362   32.0046   33.0039 C   0  0  0  0  0  0  0  0  0  0  0  0
   32.4575   32.6675   32.3293 H   0  0  0  0  0  0  0  0  0  0  0  0
   30.7620   31.3676   32.6157 C   0  0  0  0  0  0  0  0  0  0  0  0
   30.0591   30.5165   33.4687 C   0  0  0  0  0  0  0  0  0  0  0  0
   29.1433   30.0419   33.1523 H   0  0  0  0  0  0  0  0  0  0  0  0
   30.5808   30.3024   34.7444 C   0  0  0  0  0  0  0  0  0  0  0  0
   30.2909   31.5862   31.3633 F   0  0  0  0  0  0  0  0  0  0  0  0
   29.8969   29.4873   35.5934 F   0  0  0  0  0  0  0  0  0  0  0  0
   32.2762   30.7393   36.4365 O   0  0  0  0  0  0  0  0  0  0  0  0
   33.7834   30.7613   38.7649 O   0  0  0  0  0  0  0  0  0  0  0  0
   34.5236   28.6411   38.4112 N   0  0  0  0  0  0  0  0  0  0  0  0
   35.2907   28.7578   39.6686 C   0  0  0  0  0  0  0  0  0  0  0  0
   35.8800   27.8580   39.9471 H   0  0  0  0  0  0  0  0  0  0  0  0
   34.6086   28.9640   40.5255 H   0  0  0  0  0  0  0  0  0  0  0  0
   36.0147   29.6028   39.6089 H   0  0  0  0  0  0  0  0  0  0  0  0
   35.3234   26.3907   38.0316 N   0  0  0  0  0  0  0  0  0  0  0  0
   35.9998   24.1835   37.7492 N   0  0  0  0  0  0  0  0  0  0  0  0
   36.0453   23.3560   37.1590 H   0  0  0  0  0  0  0  0  0  0  0  0
  1  2  1  0
  1  4  2  0
  1  5  1  0
  3  5  2  0
  3 36  1  0
  3 41  1  0
  4 10  1  0
  5  6  1  0
  6  7  1  0
  6  8  2  0
  8  9  1  0
  8 34  1  0
  9 35  2  0
  9 36  1  0
 10 41  2  0
 10 42  1  0
 11 12  1  0
 11 13  1  0
 11 18  1  0
 11 42  1  0
 13 14  1  0
 13 15  1  0
 13 16  1  0
 16 17  1  0
 18 19  1  0
 18 20  1  0
 18 22  1  0
 20 21  1  0
 23 24  2  0
 23 31  1  0
 23 34  1  0
 24 25  1  0
 24 26  1  0
 26 27  1  0
 26 28  2  0
 28 29  1  0
 28 32  1  0
 29 30  1  0
 29 31  2  0
 31 33  1  0
 36 37  1  0
 37 38  1  0
 37 39  1  0
 37 40  1  0
 42 43  1  0
M  END
> <intraLJ>
34.334    

> <intraEL>
-7.607    

> <intraDihe>
19.574    

> <interLJ>
0.000     

> <interEJ>
0.000     

> <gridLJ>
-11.479   

> <gridEL>
0.000     

> <totalE>
34.822    

> <LGFE>
-11.479 

> <LE>
-0.425  

> <SMILES>
Cn1c(=O)c(Oc2ccc(F)cc2F)cc2cnc(NC(CO)CO)nc21

> <atom.dprop.GFE>
-0.1186 0.0000 -0.1732 -1.1750 -0.0645 0.0361 0.0000 0.1134 0.0226 -0.0989 -0.5435 0.0000 -0.3733 0.0000 0.0000 -0.4840 0.0000 -0.6580 0.0000 -0.7910 0.0000 0.0000 -0.0094 -0.1733 0.0000 -0.1089 0.0000 -0.1972 -0.2331 0.0000 -0.2044 -1.7410 -1.9990 -0.8260 -0.6960 -0.0676 -0.5075 0.0000 0.0000 0.0000 0.0260 -0.4340 0.0000

> <atom.prop.CLASS>
BENC NCLA GEHC IMIN BENC BENC NCLA BENC GEHC GEHC PRPC NCLA PRPC NCLA NCLA MEOO NCLA PRPC NCLA MEOO NCLA NCLA BENC BENC NCLA BENC NCLA BENC BENC NCLA BENC FLBX FLBX DMEO FORO GEHC PRPC NCLA NCLA NCLA IMIN FORN NCLA

> <cluster_id>
1

> <rmsd_to_cluster_rep>
0.00    

> <ligRMSD>
1.42    

> <ligCOMD>
0.90    

$$$$
p38_goldstein_28_2bb.X_1019
     RDKit          3D

 44 46  0  0  0  0  0  0  0  0999 V2000
   30.6007   30.4054   33.1746 C   0  0  0  0  0  0  0  0  0  0  0  0
   34.4069   29.6542   37.2548 C   0  0  0  0  0  0  0  0  0  0  0  0
   31.5087   30.2669   34.2253 C   0  0  0  0  0  0  0  0  0  0  0  0
   34.1589   24.8980   37.9267 C   0  0  0  0  0  0  0  0  0  0  0  0
   34.7097   23.8459   40.1741 C   0  0  0  0  0  0  0  0  0  0  0  0
   33.9211   27.0214   36.2502 C   0  0  0  0  0  0  0  0  0  0  0  0
   33.7852   28.1378   35.4424 C   0  0  0  0  0  0  0  0  0  0  0  0
   31.0848   30.8880   31.9580 C   0  0  0  0  0  0  0  0  0  0  0  0
   32.4181   31.2435   31.7792 C   0  0  0  0  0  0  0  0  0  0  0  0
   33.3088   31.1093   32.8465 C   0  0  0  0  0  0  0  0  0  0  0  0
   34.2534   27.2230   37.6410 C   0  0  0  0  0  0  0  0  0  0  0  0
   33.7536   25.7069   35.7917 C   0  0  0  0  0  0  0  0  0  0  0  0
   33.9695   29.4433   35.9016 C   0  0  0  0  0  0  0  0  0  0  0  0
   32.8617   30.5925   34.0658 C   0  0  0  0  0  0  0  0  0  0  0  0
   34.8381   28.7300   39.4950 C   0  0  0  0  0  0  0  0  0  0  0  0
   31.0538   29.7978   35.4192 F   0  0  0  0  0  0  0  0  0  0  0  0
   33.7477   30.5475   35.1306 O   0  0  0  0  0  0  0  0  0  0  0  0
   33.8684   24.6492   36.6057 N   0  0  0  0  0  0  0  0  0  0  0  0
   34.6939   30.7659   37.7101 O   0  0  0  0  0  0  0  0  0  0  0  0
   34.4601   28.5303   38.0821 N   0  0  0  0  0  0  0  0  0  0  0  0
   34.3723   26.1371   38.4534 N   0  0  0  0  0  0  0  0  0  0  0  0
   34.2201   23.8149   38.7694 N   0  0  0  0  0  0  0  0  0  0  0  0
   29.5610   30.1447   33.2965 H   0  0  0  0  0  0  0  0  0  0  0  0
   34.4540   22.9095   40.7133 H   0  0  0  0  0  0  0  0  0  0  0  0
   33.4912   27.9908   34.4025 H   0  0  0  0  0  0  0  0  0  0  0  0
   32.7689   31.6251   30.8318 H   0  0  0  0  0  0  0  0  0  0  0  0
   34.3445   31.3928   32.7271 H   0  0  0  0  0  0  0  0  0  0  0  0
   33.5183   25.5122   34.7535 H   0  0  0  0  0  0  0  0  0  0  0  0
   34.2464   28.0832   40.1827 H   0  0  0  0  0  0  0  0  0  0  0  0
   35.9155   28.4964   39.6528 H   0  0  0  0  0  0  0  0  0  0  0  0
   34.6679   29.7700   39.8521 H   0  0  0  0  0  0  0  0  0  0  0  0
   34.0172   22.9052   38.3614 H   0  0  0  0  0  0  0  0  0  0  0  0
   30.2341   31.0104   30.9084 F   0  0  0  0  0  0  0  0  0  0  0  0
   36.2370   24.0154   40.1668 C   0  0  0  0  0  0  0  0  0  0  0  0
   34.2320   24.7002   40.7033 H   0  0  0  0  0  0  0  0  0  0  0  0
   36.7386   23.1513   39.6824 H   0  0  0  0  0  0  0  0  0  0  0  0
   36.5448   24.9613   39.6747 H   0  0  0  0  0  0  0  0  0  0  0  0
   38.5547   24.2708   41.7395 C   0  0  0  0  0  0  0  0  0  0  0  0
   36.7864   24.0777   41.8759 S   0  0  0  0  0  0  0  0  0  0  0  0
   36.2601   25.2823   42.4614 O   0  0  0  0  0  0  0  0  0  0  0  0
   36.5333   22.7935   42.4750 O   0  0  0  0  0  0  0  0  0  0  0  0
   38.9864   23.3855   41.2270 H   0  0  0  0  0  0  0  0  0  0  0  0
   38.7843   25.1897   41.1603 H   0  0  0  0  0  0  0  0  0  0  0  0
   38.9882   24.3569   42.7585 H   0  0  0  0  0  0  0  0  0  0  0  0
  1  3  2  0
  1  8  1  0
  1 23  1  0
  2 13  1  0
  2 19  2  0
  2 20  1  0
  3 14  1  0
  3 16  1  0
  4 18  1  0
  4 21  2  0
  4 22  1  0
  5 22  1  0
  5 24  1  0
  5 34  1  0
  5 35  1  0
  6  7  1  0
  6 11  2  0
  6 12  1  0
  7 13  2  0
  7 25  1  0
  8  9  2  0
  8 33  1  0
  9 10  1  0
  9 26  1  0
 10 14  2  0
 10 27  1  0
 11 20  1  0
 11 21  1  0
 12 18  2  0
 12 28  1  0
 13 17  1  0
 14 17  1  0
 15 20  1  0
 15 29  1  0
 15 30  1  0
 15 31  1  0
 22 32  1  0
 34 36  1  0
 34 37  1  0
 34 39  1  0
 38 39  1  0
 38 42  1  0
 38 43  1  0
 38 44  1  0
 39 40  2  0
 39 41  2  0
M  END
> <intraLJ>
31.441    

> <intraEL>
-14.398   

> <intraDihe>
15.355    

> <interLJ>
0.000     

> <interEJ>
0.000     

> <gridLJ>
-10.366   

> <gridEL>
0.000     

> <totalE>
22.032    

> <LGFE>
-10.366 

> <LE>
-0.370  

> <SMILES>
Cn1c(=O)c(Oc2ccc(F)cc2F)cc2cnc(NCCS(C)(=O)=O)nc21

> <atom.dprop.GFE>
-0.2331 0.0130 -0.2004 -0.0226 -0.3114 -0.0645 0.0977 -0.1972 -0.1570 -0.1443 -0.1732 -0.1184 0.0768 -0.1373 -0.5075 -2.0180 -1.3430 -1.0790 -0.3210 -0.0676 -0.2210 -0.5050 0.0000 0.0000 0.0000 0.0000 0.0000 0.0000 0.0000 0.0000 0.0000 0.0000 -1.7410 -0.2368 0.0000 0.0000 0.0000 -0.1675 0.0000 -0.3650 -0.2220 0.0000 0.0000 0.0000

> <atom.prop.CLASS>
BENC GEHC BENC GEHC PRPC BENC BENC BENC BENC BENC GEHC BENC BENC BENC PRPC FLBX DMEO IMIN FORO GEHC IMIN FORN NCLA NCLA NCLA NCLA NCLA NCLA NCLA NCLA NCLA NCLA FLBX PRPC NCLA NCLA NCLA PRPC NCLA FORO FORO NCLA NCLA NCLA

> <cluster_id>
1

> <rmsd_to_cluster_rep>
0.00    

> <ligRMSD>
1.46    

> <ligCOMD>
0.80    

$$$$
p38_goldstein_29_2cc_3fls_173
     RDKit          3D

 47 49  0  0  1  0  0  0  0  0999 V2000
   36.7729   24.1887   38.9318 C   0  0  2  0  0  0  0  0  0  0  0  0
   36.3159   24.8818   39.6746 H   0  0  0  0  0  0  0  0  0  0  0  0
   38.1203   24.8300   38.5340 C   0  0  0  0  0  0  0  0  0  0  0  0
   38.6780   24.1621   37.8440 H   0  0  0  0  0  0  0  0  0  0  0  0
   38.7438   25.0010   39.4374 H   0  0  0  0  0  0  0  0  0  0  0  0
   37.9605   25.8074   38.0322 H   0  0  0  0  0  0  0  0  0  0  0  0
   37.0203   22.8601   39.6777 C   0  0  0  0  0  0  0  0  0  0  0  0
   37.9590   22.4061   39.2922 H   0  0  0  0  0  0  0  0  0  0  0  0
   36.1889   22.1398   39.5375 H   0  0  0  0  0  0  0  0  0  0  0  0
   37.2843   23.1091   41.4453 S   0  0  0  0  0  0  0  0  0  0  0  0
   35.6350   23.4164   42.0737 C   0  0  0  0  0  0  0  0  0  0  0  0
   34.9649   22.5799   41.7836 H   0  0  0  0  0  0  0  0  0  0  0  0
   35.2451   24.3694   41.6592 H   0  0  0  0  0  0  0  0  0  0  0  0
   35.6762   23.4886   43.1812 H   0  0  0  0  0  0  0  0  0  0  0  0
   34.5733   28.5687   37.8241 N   0  0  0  0  0  0  0  0  0  0  0  0
   33.9582   29.6878   37.2681 C   0  0  0  0  0  0  0  0  0  0  0  0
   33.3682   29.5274   35.9695 C   0  0  0  0  0  0  0  0  0  0  0  0
   33.4523   28.2897   35.3251 C   0  0  0  0  0  0  0  0  0  0  0  0
   33.0181   28.1926   34.3293 H   0  0  0  0  0  0  0  0  0  0  0  0
   34.6510   27.3289   37.1950 C   0  0  0  0  0  0  0  0  0  0  0  0
   34.0632   27.1812   35.8871 C   0  0  0  0  0  0  0  0  0  0  0  0
   34.1411   25.9248   35.2643 C   0  0  0  0  0  0  0  0  0  0  0  0
   33.7129   25.7710   34.2827 H   0  0  0  0  0  0  0  0  0  0  0  0
   34.7320   24.8719   35.8514 N   0  0  0  0  0  0  0  0  0  0  0  0
   35.2728   25.0740   37.1027 C   0  0  0  0  0  0  0  0  0  0  0  0
   35.2554   26.2610   37.7665 N   0  0  0  0  0  0  0  0  0  0  0  0
   33.9384   30.7528   37.8924 O   0  0  0  0  0  0  0  0  0  0  0  0
   35.8638   24.0151   37.7526 N   0  0  0  0  0  0  0  0  0  0  0  0
   35.9951   23.1751   37.1941 H   0  0  0  0  0  0  0  0  0  0  0  0
   32.8043   30.6310   35.4058 O   0  0  0  0  0  0  0  0  0  0  0  0
   32.0504   30.6195   34.2502 C   0  0  0  0  0  0  0  0  0  0  0  0
   35.1836   28.6919   39.1632 C   0  0  0  0  0  0  0  0  0  0  0  0
   35.0934   29.7029   39.6160 H   0  0  0  0  0  0  0  0  0  0  0  0
   36.2732   28.4603   39.1279 H   0  0  0  0  0  0  0  0  0  0  0  0
   34.7115   27.9833   39.8825 H   0  0  0  0  0  0  0  0  0  0  0  0
   32.4396   31.4546   33.2009 C   0  0  0  0  0  0  0  0  0  0  0  0
   33.3497   32.0321   33.2780 H   0  0  0  0  0  0  0  0  0  0  0  0
   31.6596   31.5281   32.0470 C   0  0  0  0  0  0  0  0  0  0  0  0
   31.9704   32.1592   31.2274 H   0  0  0  0  0  0  0  0  0  0  0  0
   30.4880   30.7833   31.9722 C   0  0  0  0  0  0  0  0  0  0  0  0
   30.0484   29.9749   33.0229 C   0  0  0  0  0  0  0  0  0  0  0  0
   29.1258   29.4207   32.9523 H   0  0  0  0  0  0  0  0  0  0  0  0
   30.8440   29.9141   34.1683 C   0  0  0  0  0  0  0  0  0  0  0  0
   37.7189   21.8327   41.9457 O   0  0  0  0  0  0  0  0  0  0  0  0
   38.0834   24.2873   41.6675 O   0  0  0  0  0  0  0  0  0  0  0  0
   30.4227   29.1603   35.2210 F   0  0  0  0  0  0  0  0  0  0  0  0
   29.7560   30.8556   30.8336 F   0  0  0  0  0  0  0  0  0  0  0  0
  1  2  1  1
  1  3  1  0
  1  7  1  0
  1 28  1  0
  3  4  1  0
  3  5  1  0
  3  6  1  0
  7  8  1  0
  7  9  1  0
  7 10  1  0
 10 11  1  0
 10 44  2  0
 10 45  2  0
 11 12  1  0
 11 13  1  0
 11 14  1  0
 15 16  1  0
 15 20  1  0
 15 32  1  0
 16 17  1  0
 16 27  2  0
 17 18  2  0
 17 30  1  0
 18 19  1  0
 18 21  1  0
 20 21  2  0
 20 26  1  0
 21 22  1  0
 22 23  1  0
 22 24  2  0
 24 25  1  0
 25 26  2  0
 25 28  1  0
 28 29  1  0
 30 31  1  0
 31 36  2  0
 31 43  1  0
 32 33  1  0
 32 34  1  0
 32 35  1  0
 36 37  1  0
 36 38  1  0
 38 39  1  0
 38 40  2  0
 40 41  1  0
 40 47  1  0
 41 42  1  0
 41 43  2  0
 43 46  1  0
M  END
> <intraLJ>
34.102    

> <intraEL>
-14.920   

> <intraDihe>
18.049    

> <interLJ>
0.000     

> <interEJ>
0.000     

> <gridLJ>
-10.973   

> <gridEL>
0.000     

> <totalE>
26.258    

> <LGFE>
-10.973 

> <LE>
-0.378  

> <SMILES>
C[C@H](CS(C)(=O)=O)Nc1ncc2cc(Oc3ccc(F)cc3F)c(=O)n(C)c2n1

> <atom.dprop.GFE>
-0.5435 0.0000 -0.6580 0.0000 0.0000 0.0000 -0.3733 0.0000 0.0000 0.0000 -0.1712 0.0000 0.0000 0.0000 -0.0676 0.0130 0.0745 0.0893 0.0000 -0.1732 -0.0645 -0.1186 0.0000 -1.1750 -0.0989 0.0260 -0.2090 -0.4340 0.0000 -1.1680 -0.2144 -0.5075 0.0000 0.0000 0.0000 -0.2153 0.0000 -0.1972 0.0000 -0.1384 -0.2331 0.0000 -0.2004 -0.1660 -0.3090 -1.9990 -1.7410

> <atom.prop.CLASS>
PRPC NCLA PRPC NCLA NCLA NCLA PRPC NCLA NCLA NCLA PRPC NCLA NCLA NCLA GEHC GEHC BENC BENC NCLA GEHC BENC BENC NCLA IMIN GEHC IMIN FORO FORN NCLA DMEO BENC PRPC NCLA NCLA NCLA BENC NCLA BENC NCLA BENC BENC NCLA BENC FORO FORO FLBX FLBX

> <cluster_id>
1

> <rmsd_to_cluster_rep>
0.00    

> <ligRMSD>
1.44    

> <ligCOMD>
0.88    

$$$$
p38_goldstein_30_2dd_3flq_426
     RDKit          3D

 47 49  0  0  1  0  0  0  0  0999 V2000
   34.4533   23.9248   40.2179 C   0  0  1  0  0  0  0  0  0  0  0  0
   33.9446   24.7443   40.7663 H   0  0  0  0  0  0  0  0  0  0  0  0
   34.0928   22.6647   41.0287 C   0  0  0  0  0  0  0  0  0  0  0  0
   34.5765   21.7653   40.5934 H   0  0  0  0  0  0  0  0  0  0  0  0
   32.9924   22.5111   41.0349 H   0  0  0  0  0  0  0  0  0  0  0  0
   34.4331   22.7756   42.0805 H   0  0  0  0  0  0  0  0  0  0  0  0
   35.9863   24.1774   40.2677 C   0  0  0  0  0  0  0  0  0  0  0  0
   36.2749   24.9721   39.5481 H   0  0  0  0  0  0  0  0  0  0  0  0
   36.5205   23.2431   39.9941 H   0  0  0  0  0  0  0  0  0  0  0  0
   36.6264   24.6521   41.8877 S   0  0  0  0  0  0  0  0  0  0  0  0
   38.2762   25.2612   41.5450 C   0  0  0  0  0  0  0  0  0  0  0  0
   38.2207   26.0834   40.8009 H   0  0  0  0  0  0  0  0  0  0  0  0
   38.9071   24.4444   41.1460 H   0  0  0  0  0  0  0  0  0  0  0  0
   38.7263   25.6426   42.4857 H   0  0  0  0  0  0  0  0  0  0  0  0
   35.8345   25.7758   42.3086 O   0  0  0  0  0  0  0  0  0  0  0  0
   36.7121   23.4947   42.7375 O   0  0  0  0  0  0  0  0  0  0  0  0
   34.1629   28.5310   38.0991 N   0  0  0  0  0  0  0  0  0  0  0  0
   34.1273   29.6512   37.2632 C   0  0  0  0  0  0  0  0  0  0  0  0
   33.9548   29.4001   35.8579 C   0  0  0  0  0  0  0  0  0  0  0  0
   33.8634   28.0873   35.4028 C   0  0  0  0  0  0  0  0  0  0  0  0
   33.7675   27.9188   34.3295 H   0  0  0  0  0  0  0  0  0  0  0  0
   34.0564   27.2130   37.6455 C   0  0  0  0  0  0  0  0  0  0  0  0
   33.9024   26.9895   36.2309 C   0  0  0  0  0  0  0  0  0  0  0  0
   33.7855   25.6733   35.7642 C   0  0  0  0  0  0  0  0  0  0  0  0
   33.6666   25.4730   34.7074 H   0  0  0  0  0  0  0  0  0  0  0  0
   33.7848   24.6235   36.5948 N   0  0  0  0  0  0  0  0  0  0  0  0
   33.9350   24.8894   37.9374 C   0  0  0  0  0  0  0  0  0  0  0  0
   34.0687   26.1384   38.4723 N   0  0  0  0  0  0  0  0  0  0  0  0
   34.2329   30.7842   37.7435 O   0  0  0  0  0  0  0  0  0  0  0  0
   33.9569   23.8262   38.8101 N   0  0  0  0  0  0  0  0  0  0  0  0
   34.0665   22.9137   38.3738 H   0  0  0  0  0  0  0  0  0  0  0  0
   33.9669   30.4528   35.0009 O   0  0  0  0  0  0  0  0  0  0  0  0
   32.9948   30.6532   34.0333 C   0  0  0  0  0  0  0  0  0  0  0  0
   34.3234   28.7467   39.5509 C   0  0  0  0  0  0  0  0  0  0  0  0
   34.3095   29.8153   39.8569 H   0  0  0  0  0  0  0  0  0  0  0  0
   35.2919   28.3333   39.9088 H   0  0  0  0  0  0  0  0  0  0  0  0
   33.5069   28.2510   40.1249 H   0  0  0  0  0  0  0  0  0  0  0  0
   33.3973   31.0724   32.7640 C   0  0  0  0  0  0  0  0  0  0  0  0
   34.4456   31.2253   32.5516 H   0  0  0  0  0  0  0  0  0  0  0  0
   32.4428   31.2739   31.7657 C   0  0  0  0  0  0  0  0  0  0  0  0
   32.7540   31.5871   30.7802 H   0  0  0  0  0  0  0  0  0  0  0  0
   31.0985   31.0682   32.0604 C   0  0  0  0  0  0  0  0  0  0  0  0
   30.6635   30.6713   33.3241 C   0  0  0  0  0  0  0  0  0  0  0  0
   29.6150   30.5256   33.5327 H   0  0  0  0  0  0  0  0  0  0  0  0
   31.6304   30.4702   34.3071 C   0  0  0  0  0  0  0  0  0  0  0  0
   31.2166   30.0930   35.5482 F   0  0  0  0  0  0  0  0  0  0  0  0
   30.1819   31.2631   31.0816 F   0  0  0  0  0  0  0  0  0  0  0  0
  1  2  1  1
  1  3  1  0
  1  7  1  0
  1 30  1  0
  3  4  1  0
  3  5  1  0
  3  6  1  0
  7  8  1  0
  7  9  1  0
  7 10  1  0
 10 11  1  0
 10 15  2  0
 10 16  2  0
 11 12  1  0
 11 13  1  0
 11 14  1  0
 17 18  1  0
 17 22  1  0
 17 34  1  0
 18 19  1  0
 18 29  2  0
 19 20  2  0
 19 32  1  0
 20 21  1  0
 20 23  1  0
 22 23  2  0
 22 28  1  0
 23 24  1  0
 24 25  1  0
 24 26  2  0
 26 27  1  0
 27 28  2  0
 27 30  1  0
 30 31  1  0
 32 33  1  0
 33 38  2  0
 33 45  1  0
 34 35  1  0
 34 36  1  0
 34 37  1  0
 38 39  1  0
 38 40  1  0
 40 41  1  0
 40 42  2  0
 42 43  1  0
 42 47  1  0
 43 44  1  0
 43 45  2  0
 45 46  1  0
M  END
> <intraLJ>
31.889    

> <intraEL>
-15.270   

> <intraDihe>
17.649    

> <interLJ>
0.000     

> <interEJ>
0.000     

> <gridLJ>
-10.688   

> <gridEL>
0.000     

> <totalE>
23.580    

> <LGFE>
-10.688 

> <LE>
-0.369  

> <SMILES>
C[C@@H](CS(C)(=O)=O)Nc1ncc2cc(Oc3ccc(F)cc3F)c(=O)n(C)c2n1

> <atom.dprop.GFE>
-0.3114 0.0000 -0.3403 0.0000 0.0000 0.0000 -0.2368 0.0000 0.0000 0.0000 -0.1345 0.0000 0.0000 0.0000 -0.3650 -0.2220 -0.0676 0.0130 0.0768 0.0977 0.0000 -0.1732 -0.0645 -0.1184 0.0000 -1.0790 -0.0226 -0.2210 -0.3210 -0.5050 0.0000 -1.3430 -0.1373 -0.5221 0.0000 0.0000 0.0000 -0.1443 0.0000 -0.1570 0.0000 -0.1972 -0.2331 0.0000 -0.2004 -2.0180 -1.7410

> <atom.prop.CLASS>
PRPC NCLA PRPC NCLA NCLA NCLA PRPC NCLA NCLA NCLA PRPC NCLA NCLA NCLA FORO FORO GEHC GEHC BENC BENC NCLA GEHC BENC BENC NCLA IMIN GEHC IMIN FORO FORN NCLA DMEO BENC PRPC NCLA NCLA NCLA BENC NCLA BENC NCLA BENC BENC NCLA BENC FLBX FLBX

> <cluster_id>
1

> <rmsd_to_cluster_rep>
0.00    

> <ligRMSD>
1.90    

> <ligCOMD>
1.02    

$$$$
p38_goldstein_31_2ee.C_650
     RDKit          3D

 52 55  0  0  0  0  0  0  0  0999 V2000
   37.0411   24.3674   39.7534 C   0  0  0  0  0  0  0  0  0  0  0  0
   37.4300   23.5748   39.0765 H   0  0  0  0  0  0  0  0  0  0  0  0
   37.1958   25.3511   39.2612 H   0  0  0  0  0  0  0  0  0  0  0  0
   37.8362   24.3249   41.0644 C   0  0  0  0  0  0  0  0  0  0  0  0
   37.5127   25.1622   41.7211 H   0  0  0  0  0  0  0  0  0  0  0  0
   38.9142   24.4781   40.8279 H   0  0  0  0  0  0  0  0  0  0  0  0
   36.1581   22.8367   42.0997 C   0  0  0  0  0  0  0  0  0  0  0  0
   35.9632   21.8872   42.6435 H   0  0  0  0  0  0  0  0  0  0  0  0
   35.8194   23.6705   42.7534 H   0  0  0  0  0  0  0  0  0  0  0  0
   35.3248   22.8253   40.8141 C   0  0  0  0  0  0  0  0  0  0  0  0
   34.2492   22.7117   41.0733 H   0  0  0  0  0  0  0  0  0  0  0  0
   35.6304   21.9511   40.1977 H   0  0  0  0  0  0  0  0  0  0  0  0
   30.5257   30.5394   33.4444 C   0  0  0  0  0  0  0  0  0  0  0  0
   29.5068   30.2946   33.7016 H   0  0  0  0  0  0  0  0  0  0  0  0
   37.5642   23.0527   41.7396 N   0  0  0  0  0  0  0  0  0  0  0  0
   38.6000   22.2458   42.1187 C   0  0  0  0  0  0  0  0  0  0  0  0
   38.2961   20.9868   42.8650 C   0  0  0  0  0  0  0  0  0  0  0  0
   37.6348   20.3292   42.2605 H   0  0  0  0  0  0  0  0  0  0  0  0
   37.7986   21.2175   43.8314 H   0  0  0  0  0  0  0  0  0  0  0  0
   39.2373   20.4353   43.0790 H   0  0  0  0  0  0  0  0  0  0  0  0
   34.4949   29.8931   37.1858 C   0  0  0  0  0  0  0  0  0  0  0  0
   31.5515   30.4373   34.3831 C   0  0  0  0  0  0  0  0  0  0  0  0
   34.5521   25.1405   37.9232 C   0  0  0  0  0  0  0  0  0  0  0  0
   35.5372   24.1229   40.0119 C   0  0  0  0  0  0  0  0  0  0  0  0
   35.1669   24.9539   40.6589 H   0  0  0  0  0  0  0  0  0  0  0  0
   34.1083   27.2199   36.2404 C   0  0  0  0  0  0  0  0  0  0  0  0
   33.8999   28.3111   35.4197 C   0  0  0  0  0  0  0  0  0  0  0  0
   33.6143   28.1383   34.3811 H   0  0  0  0  0  0  0  0  0  0  0  0
   30.8593   30.9728   32.1627 C   0  0  0  0  0  0  0  0  0  0  0  0
   32.1609   31.3118   31.8088 C   0  0  0  0  0  0  0  0  0  0  0  0
   32.3939   31.6545   30.8115 H   0  0  0  0  0  0  0  0  0  0  0  0
   33.1755   31.2080   32.7624 C   0  0  0  0  0  0  0  0  0  0  0  0
   34.1912   31.4677   32.5006 H   0  0  0  0  0  0  0  0  0  0  0  0
   34.5208   27.4598   37.6009 C   0  0  0  0  0  0  0  0  0  0  0  0
   33.9434   25.8944   35.8195 C   0  0  0  0  0  0  0  0  0  0  0  0
   33.6364   25.6726   34.8058 H   0  0  0  0  0  0  0  0  0  0  0  0
   34.0640   29.6276   35.8381 C   0  0  0  0  0  0  0  0  0  0  0  0
   32.8833   30.7473   34.0489 C   0  0  0  0  0  0  0  0  0  0  0  0
   35.1254   28.9864   39.4066 C   0  0  0  0  0  0  0  0  0  0  0  0
   35.2364   30.0550   39.6915 H   0  0  0  0  0  0  0  0  0  0  0  0
   36.1128   28.5042   39.5941 H   0  0  0  0  0  0  0  0  0  0  0  0
   34.3934   28.5448   40.1220 H   0  0  0  0  0  0  0  0  0  0  0  0
   31.2171   30.0415   35.6415 F   0  0  0  0  0  0  0  0  0  0  0  0
   29.8828   31.0764   31.2281 F   0  0  0  0  0  0  0  0  0  0  0  0
   33.9282   30.6605   34.9682 O   0  0  0  0  0  0  0  0  0  0  0  0
   34.1678   24.8576   36.6353 N   0  0  0  0  0  0  0  0  0  0  0  0
   34.6807   31.0299   37.6293 O   0  0  0  0  0  0  0  0  0  0  0  0
   34.6923   28.7797   38.0109 N   0  0  0  0  0  0  0  0  0  0  0  0
   34.7388   26.3966   38.4205 N   0  0  0  0  0  0  0  0  0  0  0  0
   34.7331   24.0746   38.7648 N   0  0  0  0  0  0  0  0  0  0  0  0
   34.5100   23.1557   38.3902 H   0  0  0  0  0  0  0  0  0  0  0  0
   39.7746   22.5005   41.8604 O   0  0  0  0  0  0  0  0  0  0  0  0
  1  2  1  0
  1  3  1  0
  1  4  1  0
  1 24  1  0
  4  5  1  0
  4  6  1  0
  4 15  1  0
  7  8  1  0
  7  9  1  0
  7 10  1  0
  7 15  1  0
 10 11  1  0
 10 12  1  0
 10 24  1  0
 13 14  1  0
 13 22  2  0
 13 29  1  0
 15 16  1  0
 16 17  1  0
 16 52  2  0
 17 18  1  0
 17 19  1  0
 17 20  1  0
 21 37  1  0
 21 47  2  0
 21 48  1  0
 22 38  1  0
 22 43  1  0
 23 46  1  0
 23 49  2  0
 23 50  1  0
 24 25  1  0
 24 50  1  0
 26 27  1  0
 26 34  2  0
 26 35  1  0
 27 28  1  0
 27 37  2  0
 29 30  2  0
 29 44  1  0
 30 31  1  0
 30 32  1  0
 32 33  1  0
 32 38  2  0
 34 48  1  0
 34 49  1  0
 35 36  1  0
 35 46  2  0
 37 45  1  0
 38 45  1  0
 39 40  1  0
 39 41  1  0
 39 42  1  0
 39 48  1  0
 50 51  1  0
M  END
> <intraLJ>
34.120    

> <intraEL>
-18.410   

> <intraDihe>
22.745    

> <interLJ>
0.000     

> <interEJ>
0.000     

> <gridLJ>
-11.102   

> <gridEL>
0.000     

> <totalE>
27.353    

> <LGFE>
-11.102 

> <LE>
-0.358  

> <SMILES>
CC(=O)N1CCC(Nc2ncc3cc(Oc4ccc(F)cc4F)c(=O)n(C)c3n2)CC1

> <atom.dprop.GFE>
-0.5435 0.0000 0.0000 -0.1675 0.0000 0.0000 -0.0693 0.0000 0.0000 -0.2334 0.0000 0.0000 -0.2331 0.0000 -0.1668 0.0000 0.1309 0.0000 0.0000 0.0000 0.1382 -0.2004 -0.0226 -0.1991 0.0000 -0.0645 0.0977 0.0000 -0.1972 -0.1570 0.0000 -0.1443 0.0000 -0.1732 -0.1117 0.0000 0.0768 -0.1373 -0.5305 0.0000 0.0000 0.0000 -2.0180 -1.7410 -1.3430 -1.1750 -0.2220 -0.0676 -0.2210 -0.5050 0.0000 -0.9020

> <atom.prop.CLASS>
PRPC NCLA NCLA PRPC NCLA NCLA PRPC NCLA NCLA PRPC NCLA NCLA BENC NCLA GEHC NCLA PRPC NCLA NCLA NCLA GEHC BENC GEHC PRPC NCLA BENC BENC NCLA BENC BENC NCLA BENC NCLA GEHC BENC NCLA BENC BENC PRPC NCLA NCLA NCLA FLBX FLBX DMEO IMIN FORO GEHC IMIN FORN NCLA FORO

> <cluster_id>
1

> <rmsd_to_cluster_rep>
0.00    

> <ligRMSD>
1.12    

> <ligCOMD>
1.02    

$$$$
p38_goldstein_32_2ff.C_768
     RDKit          3D

 49 52  0  0  0  0  0  0  0  0999 V2000
   36.9607   24.0969   39.5201 C   0  0  0  0  0  0  0  0  0  0  0  0
   37.2334   23.2623   38.8369 H   0  0  0  0  0  0  0  0  0  0  0  0
   37.1132   25.0519   38.9727 H   0  0  0  0  0  0  0  0  0  0  0  0
   37.8926   24.0651   40.7389 C   0  0  0  0  0  0  0  0  0  0  0  0
   37.7064   24.9732   41.3550 H   0  0  0  0  0  0  0  0  0  0  0  0
   38.9488   24.0948   40.3929 H   0  0  0  0  0  0  0  0  0  0  0  0
   36.1774   22.6650   42.0116 C   0  0  0  0  0  0  0  0  0  0  0  0
   36.0314   21.7145   42.5698 H   0  0  0  0  0  0  0  0  0  0  0  0
   35.9001   23.5057   42.6861 H   0  0  0  0  0  0  0  0  0  0  0  0
   35.2531   22.6811   40.7885 C   0  0  0  0  0  0  0  0  0  0  0  0
   34.1955   22.6419   41.1322 H   0  0  0  0  0  0  0  0  0  0  0  0
   35.4509   21.7768   40.1718 H   0  0  0  0  0  0  0  0  0  0  0  0
   30.5065   30.6046   33.5116 C   0  0  0  0  0  0  0  0  0  0  0  0
   29.4684   30.3669   33.6845 H   0  0  0  0  0  0  0  0  0  0  0  0
   37.6571   22.8083   41.6016 C   0  0  2  0  0  0  0  0  0  0  0  0
   38.4729   22.8616   42.7619 O   0  0  0  0  0  0  0  0  0  0  0  0
   39.3766   22.9367   42.4471 H   0  0  0  0  0  0  0  0  0  0  0  0
   37.9494   21.9108   41.0118 H   0  0  0  0  0  0  0  0  0  0  0  0
   34.6214   29.7753   37.3647 C   0  0  0  0  0  0  0  0  0  0  0  0
   31.4544   30.4855   34.5291 C   0  0  0  0  0  0  0  0  0  0  0  0
   34.3606   25.0139   37.9570 C   0  0  0  0  0  0  0  0  0  0  0  0
   35.4781   23.9438   39.9357 C   0  0  2  0  0  0  0  0  0  0  0  0
   35.2252   24.8022   40.6022 H   0  0  0  0  0  0  0  0  0  0  0  0
   33.8727   27.1849   36.4145 C   0  0  0  0  0  0  0  0  0  0  0  0
   33.6391   28.3185   35.6637 C   0  0  0  0  0  0  0  0  0  0  0  0
   33.1733   28.2031   34.6843 H   0  0  0  0  0  0  0  0  0  0  0  0
   30.9469   31.0406   32.2617 C   0  0  0  0  0  0  0  0  0  0  0  0
   32.2767   31.3670   32.0172 C   0  0  0  0  0  0  0  0  0  0  0  0
   32.5939   31.7118   31.0441 H   0  0  0  0  0  0  0  0  0  0  0  0
   33.2090   31.2499   33.0502 C   0  0  0  0  0  0  0  0  0  0  0  0
   34.2445   31.5042   32.8755 H   0  0  0  0  0  0  0  0  0  0  0  0
   34.5049   27.3368   37.7017 C   0  0  0  0  0  0  0  0  0  0  0  0
   33.5278   25.8958   35.9863 C   0  0  0  0  0  0  0  0  0  0  0  0
   33.0568   25.7438   35.0239 H   0  0  0  0  0  0  0  0  0  0  0  0
   33.9689   29.6028   36.0907 C   0  0  0  0  0  0  0  0  0  0  0  0
   32.8076   30.7812   34.3040 C   0  0  0  0  0  0  0  0  0  0  0  0
   35.5065   28.7460   39.4418 C   0  0  0  0  0  0  0  0  0  0  0  0
   35.7646   29.7906   39.7207 H   0  0  0  0  0  0  0  0  0  0  0  0
   36.4575   28.1660   39.4754 H   0  0  0  0  0  0  0  0  0  0  0  0
   34.8468   28.3572   40.2517 H   0  0  0  0  0  0  0  0  0  0  0  0
   31.0343   30.0706   35.7549 F   0  0  0  0  0  0  0  0  0  0  0  0
   30.0548   31.1524   31.2461 F   0  0  0  0  0  0  0  0  0  0  0  0
   33.7590   30.7073   35.3176 O   0  0  0  0  0  0  0  0  0  0  0  0
   33.7697   24.8103   36.7321 N   0  0  0  0  0  0  0  0  0  0  0  0
   34.9656   30.8769   37.8025 O   0  0  0  0  0  0  0  0  0  0  0  0
   34.8538   28.6200   38.1208 N   0  0  0  0  0  0  0  0  0  0  0  0
   34.7369   26.2289   38.4472 N   0  0  0  0  0  0  0  0  0  0  0  0
   34.5638   23.9255   38.7638 N   0  0  0  0  0  0  0  0  0  0  0  0
   34.2555   23.0214   38.4147 H   0  0  0  0  0  0  0  0  0  0  0  0
  1  2  1  0
  1  3  1  0
  1  4  1  0
  1 22  1  0
  4  5  1  0
  4  6  1  0
  4 15  1  0
  7  8  1  0
  7  9  1  0
  7 10  1  0
  7 15  1  0
 10 11  1  0
 10 12  1  0
 10 22  1  0
 13 14  1  0
 13 20  2  0
 13 27  1  0
 15 16  1  0
 15 18  1  6
 16 17  1  0
 19 35  1  0
 19 45  2  0
 19 46  1  0
 20 36  1  0
 20 41  1  0
 21 44  1  0
 21 47  2  0
 21 48  1  0
 22 23  1  1
 22 48  1  0
 24 25  1  0
 24 32  2  0
 24 33  1  0
 25 26  1  0
 25 35  2  0
 27 28  2  0
 27 42  1  0
 28 29  1  0
 28 30  1  0
 30 31  1  0
 30 36  2  0
 32 46  1  0
 32 47  1  0
 33 34  1  0
 33 44  2  0
 35 43  1  0
 36 43  1  0
 37 38  1  0
 37 39  1  0
 37 40  1  0
 37 46  1  0
 48 49  1  0
M  END
> <intraLJ>
32.708    

> <intraEL>
-14.324   

> <intraDihe>
22.150    

> <interLJ>
0.000     

> <interEJ>
0.000     

> <gridLJ>
-10.541   

> <gridEL>
0.000     

> <totalE>
29.993    

> <LGFE>
-10.541 

> <LE>
-0.363  

> <SMILES>
Cn1c(=O)c(Oc2ccc(F)cc2F)cc2cnc(N[C@H]3CC[C@H](O)CC3)nc21

> <atom.dprop.GFE>
-0.5435 0.0000 0.0000 -0.4635 0.0000 0.0000 -0.0503 0.0000 0.0000 -0.2381 0.0000 0.0000 -0.2331 0.0000 -0.1029 0.0280 0.0000 0.0000 0.0130 -0.2004 -0.0226 -0.1991 0.0000 -0.0645 0.0893 0.0000 -0.1972 -0.1570 0.0000 -0.1443 0.0000 -0.1732 -0.0872 0.0000 0.0768 -0.1373 -0.5075 0.0000 0.0000 0.0000 -2.0180 -1.7410 -1.3430 -1.1750 -0.1660 -0.0579 -0.2210 -0.5050 0.0000

> <atom.prop.CLASS>
PRPC NCLA NCLA PRPC NCLA NCLA PRPC NCLA NCLA PRPC NCLA NCLA BENC NCLA PRPC MEOO NCLA NCLA GEHC BENC GEHC PRPC NCLA BENC BENC NCLA BENC BENC NCLA BENC NCLA GEHC BENC NCLA BENC BENC PRPC NCLA NCLA NCLA FLBX FLBX DMEO IMIN FORO GEHC IMIN FORN NCLA

> <cluster_id>
1

> <rmsd_to_cluster_rep>
0.00    

> <ligRMSD>
1.17    

> <ligCOMD>
1.13    

$$$$
p38_goldstein_33_2gg_64
     RDKit          3D

 48 51  0  0  0  0  0  0  0  0999 V2000
   33.7986   26.1674   35.8126 C   0  0  0  0  0  0  0  0  0  0  0  0
   33.1162   25.8591   35.0311 H   0  0  0  0  0  0  0  0  0  0  0  0
   34.7253   27.8450   37.3259 C   0  0  0  0  0  0  0  0  0  0  0  0
   34.6201   25.2397   36.3141 N   0  0  0  0  0  0  0  0  0  0  0  0
   33.8046   27.4881   36.2736 C   0  0  0  0  0  0  0  0  0  0  0  0
   32.9652   28.4648   35.7748 C   0  0  0  0  0  0  0  0  0  0  0  0
   32.2843   28.2047   34.9630 H   0  0  0  0  0  0  0  0  0  0  0  0
   32.9557   29.7766   36.2350 C   0  0  0  0  0  0  0  0  0  0  0  0
   33.8840   30.1701   37.2629 C   0  0  0  0  0  0  0  0  0  0  0  0
   35.4919   25.6295   37.3007 C   0  0  0  0  0  0  0  0  0  0  0  0
   31.3904   30.4696   34.5226 C   0  0  0  0  0  0  0  0  0  0  0  0
   31.7840   31.0546   33.3158 C   0  0  0  0  0  0  0  0  0  0  0  0
   32.6751   31.6644   33.2777 H   0  0  0  0  0  0  0  0  0  0  0  0
   31.0397   30.8330   32.1551 C   0  0  0  0  0  0  0  0  0  0  0  0
   31.3559   31.2748   31.2217 H   0  0  0  0  0  0  0  0  0  0  0  0
   29.8958   30.0447   32.2220 C   0  0  0  0  0  0  0  0  0  0  0  0
   29.4559   29.4719   33.4139 C   0  0  0  0  0  0  0  0  0  0  0  0
   28.5577   28.8750   33.4463 H   0  0  0  0  0  0  0  0  0  0  0  0
   30.2133   29.6995   34.5624 C   0  0  0  0  0  0  0  0  0  0  0  0
   29.1829   29.8348   31.0880 F   0  0  0  0  0  0  0  0  0  0  0  0
   29.7665   29.1625   35.7302 F   0  0  0  0  0  0  0  0  0  0  0  0
   32.1630   30.7173   35.6577 O   0  0  0  0  0  0  0  0  0  0  0  0
   33.9571   31.3190   37.7087 O   0  0  0  0  0  0  0  0  0  0  0  0
   34.7249   29.1679   37.7669 N   0  0  0  0  0  0  0  0  0  0  0  0
   35.6912   29.5107   38.8280 C   0  0  0  0  0  0  0  0  0  0  0  0
   35.5193   28.8927   39.7397 H   0  0  0  0  0  0  0  0  0  0  0  0
   35.6458   30.5718   39.1555 H   0  0  0  0  0  0  0  0  0  0  0  0
   36.7374   29.3284   38.4894 H   0  0  0  0  0  0  0  0  0  0  0  0
   35.5584   26.8870   37.8280 N   0  0  0  0  0  0  0  0  0  0  0  0
   36.3642   24.6675   37.7397 N   0  0  0  0  0  0  0  0  0  0  0  0
   36.2144   23.7298   37.3748 H   0  0  0  0  0  0  0  0  0  0  0  0
   38.9179   23.4460   41.2475 S   0  0  0  0  0  0  0  0  0  0  0  0
   39.6013   23.8582   39.6416 C   0  0  0  0  0  0  0  0  0  0  0  0
   40.4045   23.1251   39.4182 H   0  0  0  0  0  0  0  0  0  0  0  0
   40.0311   24.8797   39.7056 H   0  0  0  0  0  0  0  0  0  0  0  0
   38.4820   23.7933   38.5958 C   0  0  0  0  0  0  0  0  0  0  0  0
   38.0799   22.7572   38.5441 H   0  0  0  0  0  0  0  0  0  0  0  0
   38.9350   24.0243   37.6044 H   0  0  0  0  0  0  0  0  0  0  0  0
   37.3293   24.7871   38.8616 C   0  0  0  0  0  0  0  0  0  0  0  0
   37.7753   25.8066   38.8872 H   0  0  0  0  0  0  0  0  0  0  0  0
   36.6355   24.5344   40.2208 C   0  0  0  0  0  0  0  0  0  0  0  0
   36.1664   23.5255   40.2135 H   0  0  0  0  0  0  0  0  0  0  0  0
   35.8210   25.2807   40.3566 H   0  0  0  0  0  0  0  0  0  0  0  0
   37.5869   24.6416   41.4231 C   0  0  0  0  0  0  0  0  0  0  0  0
   37.0590   24.4208   42.3743 H   0  0  0  0  0  0  0  0  0  0  0  0
   38.0453   25.6513   41.4748 H   0  0  0  0  0  0  0  0  0  0  0  0
   38.3516   22.1228   41.1842 O   0  0  0  0  0  0  0  0  0  0  0  0
   39.9184   23.7752   42.2290 O   0  0  0  0  0  0  0  0  0  0  0  0
  1  2  1  0
  1  4  2  0
  1  5  1  0
  3  5  2  0
  3 24  1  0
  3 29  1  0
  4 10  1  0
  5  6  1  0
  6  7  1  0
  6  8  2  0
  8  9  1  0
  8 22  1  0
  9 23  2  0
  9 24  1  0
 10 29  2  0
 10 30  1  0
 11 12  2  0
 11 19  1  0
 11 22  1  0
 12 13  1  0
 12 14  1  0
 14 15  1  0
 14 16  2  0
 16 17  1  0
 16 20  1  0
 17 18  1  0
 17 19  2  0
 19 21  1  0
 24 25  1  0
 25 26  1  0
 25 27  1  0
 25 28  1  0
 30 31  1  0
 30 39  1  0
 32 33  1  0
 32 44  1  0
 32 47  2  0
 32 48  2  0
 33 34  1  0
 33 35  1  0
 33 36  1  0
 36 37  1  0
 36 38  1  0
 36 39  1  0
 39 40  1  0
 39 41  1  0
 41 42  1  0
 41 43  1  0
 41 44  1  0
 44 45  1  0
 44 46  1  0
M  END
> <intraLJ>
31.777    

> <intraEL>
-15.695   

> <intraDihe>
20.447    

> <interLJ>
0.000     

> <interEJ>
0.000     

> <gridLJ>
-10.245   

> <gridEL>
0.000     

> <totalE>
26.285    

> <LGFE>
-10.245 

> <LE>
-0.341  

> <SMILES>
Cn1c(=O)c(Oc2ccc(F)cc2F)cc2cnc(NC3CCS(=O)(=O)CC3)nc21

> <atom.dprop.GFE>
-0.1117 0.0000 -0.1465 -1.1750 -0.0645 0.0361 0.0000 0.0745 0.1382 -0.0989 -0.2004 -0.2153 0.0000 -0.1972 0.0000 -0.1384 -0.0145 0.0000 -0.1518 -1.5710 -1.9990 -1.0020 -0.2220 0.0226 -0.5305 0.0000 0.0000 0.0000 -0.2720 -0.4340 0.0000 0.0000 -0.1235 0.0000 0.0000 -0.5887 0.0000 0.0000 -0.5435 0.0000 -0.2368 0.0000 0.0000 -0.1658 0.0000 0.0000 0.4120 -0.7250

> <atom.prop.CLASS>
BENC NCLA GEHC IMIN BENC BENC NCLA BENC GEHC GEHC BENC BENC NCLA BENC NCLA BENC BENC NCLA BENC FLBX FLBX DMEO FORO GEHC PRPC NCLA NCLA NCLA IMIN FORN NCLA NCLA PRPC NCLA NCLA PRPC NCLA NCLA PRPC NCLA PRPC NCLA NCLA PRPC NCLA NCLA FORO FORO

> <cluster_id>
1

> <rmsd_to_cluster_rep>
0.00    

> <ligRMSD>
1.60    

> <ligCOMD>
0.87    

$$$$
p38_goldstein_34_2hh_3fmk_864
     RDKit          3D

 46 49  0  0  1  0  0  0  0  0999 V2000
   33.8037   23.9676   39.0013 N   0  0  0  0  0  0  0  0  0  0  0  0
   33.2905   23.1366   38.7155 H   0  0  0  0  0  0  0  0  0  0  0  0
   34.8008   23.8223   40.1092 C   0  0  2  0  0  0  0  0  0  0  0  0
   34.8281   24.7557   40.7188 H   0  0  0  0  0  0  0  0  0  0  0  0
   36.2504   23.6050   39.5718 C   0  0  0  0  0  0  0  0  0  0  0  0
   36.2516   23.8870   38.4946 H   0  0  0  0  0  0  0  0  0  0  0  0
   36.4475   22.5095   39.5942 H   0  0  0  0  0  0  0  0  0  0  0  0
   33.7486   25.0480   38.1539 C   0  0  0  0  0  0  0  0  0  0  0  0
   34.3764   26.1837   38.5663 N   0  0  0  0  0  0  0  0  0  0  0  0
   32.9280   26.0267   36.2270 C   0  0  0  0  0  0  0  0  0  0  0  0
   32.3601   25.9462   35.3094 H   0  0  0  0  0  0  0  0  0  0  0  0
   33.0423   24.9253   36.9800 N   0  0  0  0  0  0  0  0  0  0  0  0
   33.5098   27.2467   36.6001 C   0  0  0  0  0  0  0  0  0  0  0  0
   34.2773   27.3053   37.8183 C   0  0  0  0  0  0  0  0  0  0  0  0
   34.8541   28.5255   38.1809 N   0  0  0  0  0  0  0  0  0  0  0  0
   34.7279   29.6975   37.4345 C   0  0  0  0  0  0  0  0  0  0  0  0
   33.9385   29.6185   36.2345 C   0  0  0  0  0  0  0  0  0  0  0  0
   33.3814   28.3995   35.8604 C   0  0  0  0  0  0  0  0  0  0  0  0
   32.8199   28.3548   34.9265 H   0  0  0  0  0  0  0  0  0  0  0  0
   35.2764   30.7327   37.8270 O   0  0  0  0  0  0  0  0  0  0  0  0
   33.8312   30.7195   35.4499 O   0  0  0  0  0  0  0  0  0  0  0  0
   32.9568   30.8089   34.3745 C   0  0  0  0  0  0  0  0  0  0  0  0
   33.4915   31.0898   33.1163 C   0  0  0  0  0  0  0  0  0  0  0  0
   34.5586   31.2118   32.9979 H   0  0  0  0  0  0  0  0  0  0  0  0
   32.6493   31.1925   32.0089 C   0  0  0  0  0  0  0  0  0  0  0  0
   33.0666   31.3964   31.0338 H   0  0  0  0  0  0  0  0  0  0  0  0
   31.2791   31.0307   32.1811 C   0  0  0  0  0  0  0  0  0  0  0  0
   30.7087   30.7775   33.4282 C   0  0  0  0  0  0  0  0  0  0  0  0
   29.6413   30.6668   33.5404 H   0  0  0  0  0  0  0  0  0  0  0  0
   31.5648   30.6735   34.5240 C   0  0  0  0  0  0  0  0  0  0  0  0
   35.6502   28.6291   39.4206 C   0  0  0  0  0  0  0  0  0  0  0  0
   35.7233   27.6906   40.0106 H   0  0  0  0  0  0  0  0  0  0  0  0
   35.2187   29.3977   40.1024 H   0  0  0  0  0  0  0  0  0  0  0  0
   36.6960   28.9367   39.1890 H   0  0  0  0  0  0  0  0  0  0  0  0
   37.3836   24.2735   40.2275 N   0  0  0  0  0  0  0  0  0  0  0  0
   37.8632   23.8251   41.3981 N   0  0  0  0  0  0  0  0  0  0  0  0
   38.7113   24.7599   41.7106 N   0  0  0  0  0  0  0  0  0  0  0  0
   38.7050   25.7027   40.7618 C   0  0  0  0  0  0  0  0  0  0  0  0
   39.3309   26.5941   40.7974 H   0  0  0  0  0  0  0  0  0  0  0  0
   37.8590   25.4431   39.7764 N   0  0  0  0  0  0  0  0  0  0  0  0
   34.3446   22.7351   41.1006 C   0  0  0  0  0  0  0  0  0  0  0  0
   34.3075   21.7410   40.6079 H   0  0  0  0  0  0  0  0  0  0  0  0
   33.3320   22.9739   41.4932 H   0  0  0  0  0  0  0  0  0  0  0  0
   35.0437   22.6797   41.9619 H   0  0  0  0  0  0  0  0  0  0  0  0
   31.0102   30.4442   35.7466 F   0  0  0  0  0  0  0  0  0  0  0  0
   30.4765   31.1256   31.0932 F   0  0  0  0  0  0  0  0  0  0  0  0
  1  2  1  0
  1  3  1  0
  1  8  1  0
  3  4  1  1
  3  5  1  0
  3 41  1  0
  5  6  1  0
  5  7  1  0
  5 35  1  0
  8  9  2  0
  8 12  1  0
  9 14  1  0
 10 11  1  0
 10 12  2  0
 10 13  1  0
 13 14  2  0
 13 18  1  0
 14 15  1  0
 15 16  1  0
 15 31  1  0
 16 17  1  0
 16 20  2  0
 17 18  2  0
 17 21  1  0
 18 19  1  0
 21 22  1  0
 22 23  2  0
 22 30  1  0
 23 24  1  0
 23 25  1  0
 25 26  1  0
 25 27  2  0
 27 28  1  0
 27 46  1  0
 28 29  1  0
 28 30  2  0
 30 45  1  0
 31 32  1  0
 31 33  1  0
 31 34  1  0
 35 36  1  0
 35 40  1  0
 36 37  2  0
 37 38  1  0
 38 39  1  0
 38 40  2  0
 41 42  1  0
 41 43  1  0
 41 44  1  0
M  END
> <intraLJ>
33.000    

> <intraEL>
-8.883    

> <intraDihe>
18.284    

> <interLJ>
0.000     

> <interEJ>
0.000     

> <gridLJ>
-12.678   

> <gridEL>
0.000     

> <totalE>
29.723    

> <LGFE>
-12.678 

> <LE>
-0.423  

> <SMILES>
C[C@@H](Cn1ncnn1)Nc1ncc2cc(Oc3ccc(F)cc3F)c(=O)n(C)c2n1

> <atom.dprop.GFE>
-0.5050 0.0000 -0.1991 0.0000 -0.1685 0.0000 0.0000 -0.0226 -0.2210 -0.0872 0.0000 -0.7880 -0.0653 -0.1795 -0.0579 0.0130 0.0768 0.0361 0.0000 -0.2740 -1.3430 -0.1231 -0.1443 0.0000 -0.1570 0.0000 -0.1972 -0.2331 0.0000 -0.2004 -0.5075 0.0000 0.0000 0.0000 -0.2011 -0.9500 -0.9500 -0.2468 0.0000 -0.8830 -0.3403 0.0000 0.0000 0.0000 -2.0180 -1.7410

> <atom.prop.CLASS>
FORN NCLA PRPC NCLA PRPC NCLA NCLA GEHC IMIN BENC NCLA IMIN BENC GEHC GEHC GEHC BENC BENC NCLA FORO DMEO BENC BENC NCLA BENC NCLA BENC BENC NCLA BENC PRPC NCLA NCLA NCLA GEHC IMIN IMIN GEHC NCLA IMIN PRPC NCLA NCLA NCLA FLBX FLBX

> <cluster_id>
1

> <rmsd_to_cluster_rep>
0.00    

> <ligRMSD>
1.51    

> <ligCOMD>
0.87    

$$$$
p38_goldstein_35_2ii_3fmh_93
     RDKit          3D

 46 49  0  0  1  0  0  0  0  0999 V2000
   35.8559   23.9204   37.6213 N   0  0  0  0  0  0  0  0  0  0  0  0
   35.8807   23.0537   37.0877 H   0  0  0  0  0  0  0  0  0  0  0  0
   36.3590   23.8994   39.0354 C   0  0  1  0  0  0  0  0  0  0  0  0
   36.8949   24.8508   39.2634 H   0  0  0  0  0  0  0  0  0  0  0  0
   35.2082   23.7931   40.0817 C   0  0  0  0  0  0  0  0  0  0  0  0
   34.5706   22.9287   39.7849 H   0  0  0  0  0  0  0  0  0  0  0  0
   34.5640   24.6930   39.9680 H   0  0  0  0  0  0  0  0  0  0  0  0
   35.1850   24.9843   37.0735 C   0  0  0  0  0  0  0  0  0  0  0  0
   35.1167   26.0987   37.8482 N   0  0  0  0  0  0  0  0  0  0  0  0
   34.1766   26.0025   35.2587 C   0  0  0  0  0  0  0  0  0  0  0  0
   33.7912   25.9426   34.2494 H   0  0  0  0  0  0  0  0  0  0  0  0
   34.6810   24.8830   35.7957 N   0  0  0  0  0  0  0  0  0  0  0  0
   34.1304   27.2112   35.9692 C   0  0  0  0  0  0  0  0  0  0  0  0
   34.6147   27.2365   37.3256 C   0  0  0  0  0  0  0  0  0  0  0  0
   34.5668   28.4403   38.0298 N   0  0  0  0  0  0  0  0  0  0  0  0
   34.0514   29.6241   37.5051 C   0  0  0  0  0  0  0  0  0  0  0  0
   33.5482   29.5719   36.1553 C   0  0  0  0  0  0  0  0  0  0  0  0
   33.6259   28.3770   35.4432 C   0  0  0  0  0  0  0  0  0  0  0  0
   33.2593   28.3577   34.4165 H   0  0  0  0  0  0  0  0  0  0  0  0
   34.0480   30.6446   38.2016 O   0  0  0  0  0  0  0  0  0  0  0  0
   33.0408   30.7087   35.6102 O   0  0  0  0  0  0  0  0  0  0  0  0
   32.2957   30.7355   34.4407 C   0  0  0  0  0  0  0  0  0  0  0  0
   32.7372   31.5378   33.3859 C   0  0  0  0  0  0  0  0  0  0  0  0
   33.6746   32.0691   33.4657 H   0  0  0  0  0  0  0  0  0  0  0  0
   31.9614   31.6545   32.2312 C   0  0  0  0  0  0  0  0  0  0  0  0
   32.3034   32.2729   31.4144 H   0  0  0  0  0  0  0  0  0  0  0  0
   30.7494   30.9758   32.1558 C   0  0  0  0  0  0  0  0  0  0  0  0
   30.2765   30.1760   33.1961 C   0  0  0  0  0  0  0  0  0  0  0  0
   29.3301   29.6638   33.1197 H   0  0  0  0  0  0  0  0  0  0  0  0
   31.0659   30.0694   34.3404 C   0  0  0  0  0  0  0  0  0  0  0  0
   35.0807   28.5103   39.4136 C   0  0  0  0  0  0  0  0  0  0  0  0
   35.4883   27.5577   39.8142 H   0  0  0  0  0  0  0  0  0  0  0  0
   34.2745   28.8275   40.1146 H   0  0  0  0  0  0  0  0  0  0  0  0
   35.9013   29.2605   39.4894 H   0  0  0  0  0  0  0  0  0  0  0  0
   35.5442   23.6611   41.5029 N   0  0  0  0  0  0  0  0  0  0  0  0
   37.4565   22.8315   39.2053 C   0  0  0  0  0  0  0  0  0  0  0  0
   37.0587   21.8132   39.0172 H   0  0  0  0  0  0  0  0  0  0  0  0
   37.8717   22.8669   40.2349 H   0  0  0  0  0  0  0  0  0  0  0  0
   38.2871   23.0193   38.4909 H   0  0  0  0  0  0  0  0  0  0  0  0
   35.4527   22.4721   42.1149 N   0  0  0  0  0  0  0  0  0  0  0  0
   35.7032   22.7906   43.3473 N   0  0  0  0  0  0  0  0  0  0  0  0
   35.9242   24.1070   43.4306 C   0  0  0  0  0  0  0  0  0  0  0  0
   36.1582   24.6179   44.3643 H   0  0  0  0  0  0  0  0  0  0  0  0
   35.8273   24.7259   42.2638 N   0  0  0  0  0  0  0  0  0  0  0  0
   30.6077   29.3077   35.3715 F   0  0  0  0  0  0  0  0  0  0  0  0
   30.0058   31.1023   31.0296 F   0  0  0  0  0  0  0  0  0  0  0  0
  1  2  1  0
  1  3  1  0
  1  8  1  0
  3  4  1  1
  3  5  1  0
  3 36  1  0
  5  6  1  0
  5  7  1  0
  5 35  1  0
  8  9  2  0
  8 12  1  0
  9 14  1  0
 10 11  1  0
 10 12  2  0
 10 13  1  0
 13 14  2  0
 13 18  1  0
 14 15  1  0
 15 16  1  0
 15 31  1  0
 16 17  1  0
 16 20  2  0
 17 18  2  0
 17 21  1  0
 18 19  1  0
 21 22  1  0
 22 23  2  0
 22 30  1  0
 23 24  1  0
 23 25  1  0
 25 26  1  0
 25 27  2  0
 27 28  1  0
 27 46  1  0
 28 29  1  0
 28 30  2  0
 30 45  1  0
 31 32  1  0
 31 33  1  0
 31 34  1  0
 35 40  1  0
 35 44  1  0
 36 37  1  0
 36 38  1  0
 36 39  1  0
 40 41  2  0
 41 42  1  0
 42 43  1  0
 42 44  2  0
M  END
> <intraLJ>
34.149    

> <intraEL>
-9.375    

> <intraDihe>
17.759    

> <interLJ>
0.000     

> <interEJ>
0.000     

> <gridLJ>
-11.828   

> <gridEL>
0.000     

> <totalE>
30.706    

> <LGFE>
-11.828 

> <LE>
-0.394  

> <SMILES>
C[C@H](Cn1ncnn1)Nc1ncc2cc(Oc3ccc(F)cc3F)c(=O)n(C)c2n1

> <atom.dprop.GFE>
-0.4340 0.0000 -0.2667 0.0000 -0.1991 0.0000 0.0000 -0.0989 0.0260 -0.1186 0.0000 -1.1750 -0.0645 -0.1732 -0.0676 0.0130 0.0745 0.0893 0.0000 -0.2090 -1.1680 -0.2144 -0.2153 0.0000 -0.1570 0.0000 -0.1972 -0.2331 0.0000 -0.2004 -0.5075 0.0000 0.0000 0.0000 -0.2145 -0.3733 0.0000 0.0000 0.0000 -0.8790 -0.4950 -0.0936 0.0000 -0.5360 -1.9990 -1.7410

> <atom.prop.CLASS>
FORN NCLA PRPC NCLA PRPC NCLA NCLA GEHC IMIN BENC NCLA IMIN BENC GEHC GEHC GEHC BENC BENC NCLA FORO DMEO BENC BENC NCLA BENC NCLA BENC BENC NCLA BENC PRPC NCLA NCLA NCLA GEHC PRPC NCLA NCLA NCLA IMIN IMIN GEHC NCLA IMIN FLBX FLBX

> <cluster_id>
1

> <rmsd_to_cluster_rep>
0.00    

> <ligRMSD>
1.48    

> <ligCOMD>
1.11    

$$$$
