bace1_merck_01_1_4dju
  MOE2024           3D
bace1_merck_01_1_4dju
 35 37  0  0  0  0  0  0  0  0999 V2000
   22.1380   12.0320   22.7480 C   0  0  0  0  0  0  0  0  0  0  0  0
   22.2470    9.6540   22.5240 N   0  0  0  0  0  0  0  0  0  0  0  0
   22.8686    8.9756   22.0849 H   0  0  0  0  0  0  0  0  0  0  0  0
   21.9740   13.2220   22.5510 O   0  0  0  0  0  0  0  0  0  0  0  0
   21.8910   10.8690   21.7450 C   0  0  0  0  0  0  0  0  0  0  0  0
   22.5720   11.4700   23.9270 N   0  0  0  0  0  0  0  0  0  0  0  0
   22.6120   10.0530   23.7640 C   0  0  0  0  0  0  0  0  0  0  0  0
   22.9830    9.2420   24.7530 N   0  0  0  0  0  0  0  0  0  0  0  0
   22.9128    8.2899   24.4618 H   0  0  0  0  0  0  0  0  0  0  0  0
   22.8990   12.2550   25.1230 C   0  0  0  0  0  0  0  0  0  0  0  0
   22.7633   13.3153   24.9099 H   0  0  0  0  0  0  0  0  0  0  0  0
   23.9354   12.0711   25.4062 H   0  0  0  0  0  0  0  0  0  0  0  0
   22.2412   11.9617   25.9412 H   0  0  0  0  0  0  0  0  0  0  0  0
   20.4110   10.7090   21.3470 C   0  0  0  0  0  0  0  0  0  0  0  0
   20.0250    9.7740   20.3920 C   0  0  0  0  0  0  0  0  0  0  0  0
   20.7714    9.1457   19.9289 H   0  0  0  0  0  0  0  0  0  0  0  0
   18.6900    9.6380   20.0260 C   0  0  0  0  0  0  0  0  0  0  0  0
   18.4076    8.9078   19.2821 H   0  0  0  0  0  0  0  0  0  0  0  0
   17.7240   10.4340   20.6110 C   0  0  0  0  0  0  0  0  0  0  0  0
   16.6888   10.3347   20.3196 H   0  0  0  0  0  0  0  0  0  0  0  0
   18.0890   11.3550   21.5680 C   0  0  0  0  0  0  0  0  0  0  0  0
   17.3362   11.9742   22.0330 H   0  0  0  0  0  0  0  0  0  0  0  0
   19.4220   11.4910   21.9380 C   0  0  0  0  0  0  0  0  0  0  0  0
   19.6942   12.2128   22.6939 H   0  0  0  0  0  0  0  0  0  0  0  0
   22.7750   11.1020   20.5060 C   0  0  0  0  0  0  0  0  0  0  0  0
   22.5930   12.2150   19.6860 C   0  0  0  0  0  0  0  0  0  0  0  0
   21.8042   12.9183   19.9088 H   0  0  0  0  0  0  0  0  0  0  0  0
   23.4160   12.4310   18.5830 C   0  0  0  0  0  0  0  0  0  0  0  0
   23.2582   13.2955   17.9553 H   0  0  0  0  0  0  0  0  0  0  0  0
   24.4330   11.5440   18.2890 C   0  0  0  0  0  0  0  0  0  0  0  0
   25.0738   11.7157   17.4368 H   0  0  0  0  0  0  0  0  0  0  0  0
   24.6260   10.4360   19.0910 C   0  0  0  0  0  0  0  0  0  0  0  0
   25.4207    9.7404   18.8651 H   0  0  0  0  0  0  0  0  0  0  0  0
   23.7990   10.2120   20.1910 C   0  0  0  0  0  0  0  0  0  0  0  0
   23.9543    9.3380   20.8061 H   0  0  0  0  0  0  0  0  0  0  0  0
  1  4  2  0  0  0  0
  1  5  1  0  0  0  0
  1  6  1  0  0  0  0
  2  3  1  0  0  0  0
  2  5  1  0  0  0  0
  2  7  1  0  0  0  0
  5 14  1  0  0  0  0
  5 25  1  0  0  0  0
  6  7  1  0  0  0  0
  6 10  1  0  0  0  0
  7  8  2  0  0  0  0
  8  9  1  0  0  0  0
 10 11  1  0  0  0  0
 10 12  1  0  0  0  0
 10 13  1  0  0  0  0
 14 15  1  0  0  0  0
 14 23  2  0  0  0  0
 15 16  1  0  0  0  0
 15 17  2  0  0  0  0
 17 18  1  0  0  0  0
 17 19  1  0  0  0  0
 19 20  1  0  0  0  0
 19 21  2  0  0  0  0
 21 22  1  0  0  0  0
 21 23  1  0  0  0  0
 23 24  1  0  0  0  0
 25 26  1  0  0  0  0
 25 34  2  0  0  0  0
 26 27  1  0  0  0  0
 26 28  2  0  0  0  0
 28 29  1  0  0  0  0
 28 30  1  0  0  0  0
 30 31  1  0  0  0  0
 30 32  2  0  0  0  0
 32 33  1  0  0  0  0
 32 34  1  0  0  0  0
 34 35  1  0  0  0  0
M  END
$$$$
bace1_merck_02_4a
  MOE2024           3D
bace1_merck_02_4a
 45 48  0  0  1  0  0  0  0  0999 V2000
   22.7570   11.7990   22.4270 C   0  0  0  0  0  0  0  0  0  0  0  0
   22.6810    9.4210   22.3170 N   0  0  0  0  0  0  0  0  0  0  0  0
   23.4132    8.7759   22.0053 H   0  0  0  0  0  0  0  0  0  0  0  0
   22.8440   12.9770   22.1420 O   0  0  0  0  0  0  0  0  0  0  0  0
   22.5140   10.6120   21.4190 C   0  0  3  0  0  0  0  0  0  0  0  0
   22.9280   11.2580   23.6800 N   0  0  0  0  0  0  0  0  0  0  0  0
   22.8380    9.8400   23.5830 C   0  0  0  0  0  0  0  0  0  0  0  0
   22.9660    9.0450   24.6440 N   0  0  0  0  0  0  0  0  0  0  0  0
   22.8669    8.0906   24.3683 H   0  0  0  0  0  0  0  0  0  0  0  0
   23.1650   12.0560   24.8900 C   0  0  0  0  0  0  0  0  0  0  0  0
   23.2663   11.3924   25.7488 H   0  0  0  0  0  0  0  0  0  0  0  0
   22.3248   12.7317   25.0500 H   0  0  0  0  0  0  0  0  0  0  0  0
   24.0798   12.6361   24.7692 H   0  0  0  0  0  0  0  0  0  0  0  0
   21.0800   10.6550   20.8550 C   0  0  0  0  0  0  0  0  0  0  0  0
   20.3230    9.4910   20.7580 C   0  0  0  0  0  0  0  0  0  0  0  0
   20.7504    8.5495   21.0701 H   0  0  0  0  0  0  0  0  0  0  0  0
   19.0200    9.5250   20.2630 C   0  0  0  0  0  0  0  0  0  0  0  0
   18.4485    8.6114   20.1910 H   0  0  0  0  0  0  0  0  0  0  0  0
   18.4590   10.7160   19.8660 C   0  0  0  0  0  0  0  0  0  0  0  0
   17.4467   10.7404   19.4904 H   0  0  0  0  0  0  0  0  0  0  0  0
   19.1970   11.8820   19.9500 C   0  0  0  0  0  0  0  0  0  0  0  0
   18.7593   12.8191   19.6392 H   0  0  0  0  0  0  0  0  0  0  0  0
   20.5030   11.8530   20.4340 C   0  0  0  0  0  0  0  0  0  0  0  0
   21.0748   12.7679   20.4838 H   0  0  0  0  0  0  0  0  0  0  0  0
   23.6230   10.6630   20.3520 C   0  0  0  0  0  0  0  0  0  0  0  0
   23.3320   10.9440   19.0190 C   0  0  0  0  0  0  0  0  0  0  0  0
   22.3024   11.0186   18.7017 H   0  0  0  0  0  0  0  0  0  0  0  0
   24.3490   11.1290   18.0950 C   0  0  0  0  0  0  0  0  0  0  0  0
   24.1093   11.3576   17.0670 H   0  0  0  0  0  0  0  0  0  0  0  0
   25.6700   11.0210   18.4890 C   0  0  0  0  0  0  0  0  0  0  0  0
   26.4586   11.1797   17.7684 H   0  0  0  0  0  0  0  0  0  0  0  0
   25.9930   10.7080   19.8130 C   0  0  0  0  0  0  0  0  0  0  0  0
   24.9570   10.5240   20.7360 C   0  0  0  0  0  0  0  0  0  0  0  0
   25.1934   10.2711   21.7590 H   0  0  0  0  0  0  0  0  0  0  0  0
   29.9780   10.5600   21.3930 C   0  0  0  0  0  0  0  0  0  0  0  0
   30.9551   10.5731   21.8530 H   0  0  0  0  0  0  0  0  0  0  0  0
   27.7540    9.6400   21.2260 C   0  0  0  0  0  0  0  0  0  0  0  0
   27.0262    8.9060   21.5390 H   0  0  0  0  0  0  0  0  0  0  0  0
   27.4080   10.5810   20.2550 C   0  0  0  0  0  0  0  0  0  0  0  0
   28.3890   11.4780   19.8270 C   0  0  0  0  0  0  0  0  0  0  0  0
   28.1580   12.1891   19.0476 H   0  0  0  0  0  0  0  0  0  0  0  0
   29.6600   11.4670   20.3920 C   0  0  0  0  0  0  0  0  0  0  0  0
   30.4050   12.1697   20.0491 H   0  0  0  0  0  0  0  0  0  0  0  0
   29.0220    9.6340   21.7960 C   0  0  0  0  0  0  0  0  0  0  0  0
   29.2659    8.9063   22.5558 H   0  0  0  0  0  0  0  0  0  0  0  0
  1  4  2  0  0  0  0
  1  5  1  0  0  0  0
  1  6  1  0  0  0  0
  2  3  1  0  0  0  0
  2  5  1  0  0  0  0
  2  7  1  0  0  0  0
  5 14  1  0  0  0  0
  5 25  1  0  0  0  0
  6  7  1  0  0  0  0
  6 10  1  0  0  0  0
  7  8  2  0  0  0  0
  8  9  1  0  0  0  0
 10 11  1  0  0  0  0
 10 12  1  0  0  0  0
 10 13  1  0  0  0  0
 14 15  1  0  0  0  0
 14 23  2  0  0  0  0
 15 16  1  0  0  0  0
 15 17  2  0  0  0  0
 17 18  1  0  0  0  0
 17 19  1  0  0  0  0
 19 20  1  0  0  0  0
 19 21  2  0  0  0  0
 21 22  1  0  0  0  0
 21 23  1  0  0  0  0
 23 24  1  0  0  0  0
 25 26  1  0  0  0  0
 25 33  2  0  0  0  0
 26 27  1  0  0  0  0
 26 28  2  0  0  0  0
 28 29  1  0  0  0  0
 28 30  1  0  0  0  0
 30 31  1  0  0  0  0
 30 32  2  0  0  0  0
 32 33  1  0  0  0  0
 32 39  1  0  0  0  0
 33 34  1  0  0  0  0
 35 36  1  0  0  0  0
 35 42  2  0  0  0  0
 35 44  1  0  0  0  0
 37 38  1  0  0  0  0
 37 39  1  0  0  0  0
 37 44  2  0  0  0  0
 39 40  2  0  0  0  0
 40 41  1  0  0  0  0
 40 42  1  0  0  0  0
 42 43  1  0  0  0  0
 44 45  1  0  0  0  0
M  END
$$$$
bace1_merck_03_4b_2djv
  MOE2024           3D
bace1_merck_03_4b_2djv
 49 52  0  0  1  0  0  0  0  0999 V2000
   22.7570   11.7990   22.4270 C   0  0  0  0  0  0  0  0  0  0  0  0
   22.6810    9.4210   22.3170 N   0  0  0  0  0  0  0  0  0  0  0  0
   23.4132    8.7759   22.0053 H   0  0  0  0  0  0  0  0  0  0  0  0
   22.8440   12.9770   22.1420 O   0  0  0  0  0  0  0  0  0  0  0  0
   22.5140   10.6120   21.4190 C   0  0  3  0  0  0  0  0  0  0  0  0
   22.9280   11.2580   23.6800 N   0  0  0  0  0  0  0  0  0  0  0  0
   29.1880    8.6810   22.7720 O   0  0  0  0  0  0  0  0  0  0  0  0
   22.8380    9.8400   23.5830 C   0  0  0  0  0  0  0  0  0  0  0  0
   22.9660    9.0450   24.6440 N   0  0  0  0  0  0  0  0  0  0  0  0
   22.8669    8.0906   24.3683 H   0  0  0  0  0  0  0  0  0  0  0  0
   23.1650   12.0560   24.8900 C   0  0  0  0  0  0  0  0  0  0  0  0
   23.2663   11.3924   25.7488 H   0  0  0  0  0  0  0  0  0  0  0  0
   22.3248   12.7317   25.0500 H   0  0  0  0  0  0  0  0  0  0  0  0
   24.0798   12.6361   24.7692 H   0  0  0  0  0  0  0  0  0  0  0  0
   21.0800   10.6550   20.8550 C   0  0  0  0  0  0  0  0  0  0  0  0
   20.3230    9.4910   20.7580 C   0  0  0  0  0  0  0  0  0  0  0  0
   20.7504    8.5495   21.0701 H   0  0  0  0  0  0  0  0  0  0  0  0
   19.0200    9.5250   20.2630 C   0  0  0  0  0  0  0  0  0  0  0  0
   18.4485    8.6114   20.1910 H   0  0  0  0  0  0  0  0  0  0  0  0
   18.4590   10.7160   19.8660 C   0  0  0  0  0  0  0  0  0  0  0  0
   17.4467   10.7404   19.4904 H   0  0  0  0  0  0  0  0  0  0  0  0
   19.1970   11.8820   19.9500 C   0  0  0  0  0  0  0  0  0  0  0  0
   18.7593   12.8191   19.6392 H   0  0  0  0  0  0  0  0  0  0  0  0
   20.5030   11.8530   20.4340 C   0  0  0  0  0  0  0  0  0  0  0  0
   21.0748   12.7679   20.4838 H   0  0  0  0  0  0  0  0  0  0  0  0
   23.6230   10.6630   20.3520 C   0  0  0  0  0  0  0  0  0  0  0  0
   23.3320   10.9440   19.0190 C   0  0  0  0  0  0  0  0  0  0  0  0
   22.3024   11.0186   18.7017 H   0  0  0  0  0  0  0  0  0  0  0  0
   24.3490   11.1290   18.0950 C   0  0  0  0  0  0  0  0  0  0  0  0
   24.1093   11.3576   17.0670 H   0  0  0  0  0  0  0  0  0  0  0  0
   25.6700   11.0210   18.4890 C   0  0  0  0  0  0  0  0  0  0  0  0
   26.4586   11.1797   17.7684 H   0  0  0  0  0  0  0  0  0  0  0  0
   25.9930   10.7080   19.8130 C   0  0  0  0  0  0  0  0  0  0  0  0
   24.9570   10.5240   20.7360 C   0  0  0  0  0  0  0  0  0  0  0  0
   25.1934   10.2711   21.7590 H   0  0  0  0  0  0  0  0  0  0  0  0
   29.9780   10.5600   21.3930 C   0  0  0  0  0  0  0  0  0  0  0  0
   30.9551   10.5731   21.8530 H   0  0  0  0  0  0  0  0  0  0  0  0
   27.7540    9.6400   21.2260 C   0  0  0  0  0  0  0  0  0  0  0  0
   27.0262    8.9060   21.5390 H   0  0  0  0  0  0  0  0  0  0  0  0
   27.4080   10.5810   20.2550 C   0  0  0  0  0  0  0  0  0  0  0  0
   28.3890   11.4780   19.8270 C   0  0  0  0  0  0  0  0  0  0  0  0
   28.1580   12.1891   19.0476 H   0  0  0  0  0  0  0  0  0  0  0  0
   29.6600   11.4670   20.3920 C   0  0  0  0  0  0  0  0  0  0  0  0
   30.4050   12.1697   20.0491 H   0  0  0  0  0  0  0  0  0  0  0  0
   29.0220    9.6340   21.7960 C   0  0  0  0  0  0  0  0  0  0  0  0
   30.3950    8.7180   23.5490 C   0  0  0  0  0  0  0  0  0  0  0  0
   30.3834    7.9069   24.2770 H   0  0  0  0  0  0  0  0  0  0  0  0
   30.4626    9.6730   24.0701 H   0  0  0  0  0  0  0  0  0  0  0  0
   31.2552    8.6022   22.8897 H   0  0  0  0  0  0  0  0  0  0  0  0
  1  4  2  0  0  0  0
  1  5  1  0  0  0  0
  1  6  1  0  0  0  0
  2  3  1  0  0  0  0
  2  5  1  0  0  0  0
  2  8  1  0  0  0  0
  5 15  1  0  0  0  0
  5 26  1  0  0  0  0
  6  8  1  0  0  0  0
  6 11  1  0  0  0  0
  7 45  1  0  0  0  0
  7 46  1  0  0  0  0
  8  9  2  0  0  0  0
  9 10  1  0  0  0  0
 11 12  1  0  0  0  0
 11 13  1  0  0  0  0
 11 14  1  0  0  0  0
 15 16  1  0  0  0  0
 15 24  2  0  0  0  0
 16 17  1  0  0  0  0
 16 18  2  0  0  0  0
 18 19  1  0  0  0  0
 18 20  1  0  0  0  0
 20 21  1  0  0  0  0
 20 22  2  0  0  0  0
 22 23  1  0  0  0  0
 22 24  1  0  0  0  0
 24 25  1  0  0  0  0
 26 27  1  0  0  0  0
 26 34  2  0  0  0  0
 27 28  1  0  0  0  0
 27 29  2  0  0  0  0
 29 30  1  0  0  0  0
 29 31  1  0  0  0  0
 31 32  1  0  0  0  0
 31 33  2  0  0  0  0
 33 34  1  0  0  0  0
 33 40  1  0  0  0  0
 34 35  1  0  0  0  0
 36 37  1  0  0  0  0
 36 43  2  0  0  0  0
 36 45  1  0  0  0  0
 38 39  1  0  0  0  0
 38 40  1  0  0  0  0
 38 45  2  0  0  0  0
 40 41  2  0  0  0  0
 41 42  1  0  0  0  0
 41 43  1  0  0  0  0
 43 44  1  0  0  0  0
 46 47  1  0  0  0  0
 46 48  1  0  0  0  0
 46 49  1  0  0  0  0
M  END
$$$$
bace1_merck_04_4c
  MOE2024           3D
bace1_merck_04_4c
 49 52  0  0  1  0  0  0  0  0999 V2000
   22.7570   11.7990   22.4270 C   0  0  0  0  0  0  0  0  0  0  0  0
   22.6810    9.4210   22.3170 N   0  0  0  0  0  0  0  0  0  0  0  0
   23.4132    8.7759   22.0053 H   0  0  0  0  0  0  0  0  0  0  0  0
   22.8440   12.9770   22.1420 O   0  0  0  0  0  0  0  0  0  0  0  0
   22.5140   10.6120   21.4190 C   0  0  3  0  0  0  0  0  0  0  0  0
   22.9280   11.2580   23.6800 N   0  0  0  0  0  0  0  0  0  0  0  0
   22.8380    9.8400   23.5830 C   0  0  0  0  0  0  0  0  0  0  0  0
   22.9660    9.0450   24.6440 N   0  0  0  0  0  0  0  0  0  0  0  0
   22.8669    8.0906   24.3683 H   0  0  0  0  0  0  0  0  0  0  0  0
   23.1650   12.0560   24.8900 C   0  0  0  0  0  0  0  0  0  0  0  0
   23.2663   11.3924   25.7488 H   0  0  0  0  0  0  0  0  0  0  0  0
   22.3248   12.7317   25.0500 H   0  0  0  0  0  0  0  0  0  0  0  0
   24.0798   12.6361   24.7692 H   0  0  0  0  0  0  0  0  0  0  0  0
   21.0800   10.6550   20.8550 C   0  0  0  0  0  0  0  0  0  0  0  0
   20.3230    9.4910   20.7580 C   0  0  0  0  0  0  0  0  0  0  0  0
   20.7504    8.5495   21.0701 H   0  0  0  0  0  0  0  0  0  0  0  0
   19.0200    9.5250   20.2630 C   0  0  0  0  0  0  0  0  0  0  0  0
   18.4485    8.6114   20.1910 H   0  0  0  0  0  0  0  0  0  0  0  0
   18.4590   10.7160   19.8660 C   0  0  0  0  0  0  0  0  0  0  0  0
   17.4467   10.7404   19.4904 H   0  0  0  0  0  0  0  0  0  0  0  0
   19.1970   11.8820   19.9500 C   0  0  0  0  0  0  0  0  0  0  0  0
   18.7593   12.8191   19.6392 H   0  0  0  0  0  0  0  0  0  0  0  0
   20.5030   11.8530   20.4340 C   0  0  0  0  0  0  0  0  0  0  0  0
   21.0748   12.7679   20.4838 H   0  0  0  0  0  0  0  0  0  0  0  0
   23.6230   10.6630   20.3520 C   0  0  0  0  0  0  0  0  0  0  0  0
   23.3320   10.9440   19.0190 C   0  0  0  0  0  0  0  0  0  0  0  0
   22.3024   11.0186   18.7017 H   0  0  0  0  0  0  0  0  0  0  0  0
   24.3490   11.1290   18.0950 C   0  0  0  0  0  0  0  0  0  0  0  0
   24.1093   11.3576   17.0670 H   0  0  0  0  0  0  0  0  0  0  0  0
   25.6700   11.0210   18.4890 C   0  0  0  0  0  0  0  0  0  0  0  0
   26.4586   11.1797   17.7684 H   0  0  0  0  0  0  0  0  0  0  0  0
   25.9930   10.7080   19.8130 C   0  0  0  0  0  0  0  0  0  0  0  0
   24.9570   10.5240   20.7360 C   0  0  0  0  0  0  0  0  0  0  0  0
   25.1934   10.2711   21.7590 H   0  0  0  0  0  0  0  0  0  0  0  0
   29.9780   10.5600   21.3930 C   0  0  0  0  0  0  0  0  0  0  0  0
   31.2428   10.6106   21.9291 O   0  0  0  0  0  0  0  0  0  0  0  0
   31.7279    9.7446   22.9792 C   0  0  0  0  0  0  0  0  0  0  0  0
   32.7567   10.0314   23.1976 H   0  0  0  0  0  0  0  0  0  0  0  0
   31.6871    8.7151   22.6224 H   0  0  0  0  0  0  0  0  0  0  0  0
   31.0985    9.8849   23.8584 H   0  0  0  0  0  0  0  0  0  0  0  0
   27.7540    9.6400   21.2260 C   0  0  0  0  0  0  0  0  0  0  0  0
   27.0262    8.9060   21.5390 H   0  0  0  0  0  0  0  0  0  0  0  0
   27.4080   10.5810   20.2550 C   0  0  0  0  0  0  0  0  0  0  0  0
   28.3890   11.4780   19.8270 C   0  0  0  0  0  0  0  0  0  0  0  0
   28.1580   12.1891   19.0476 H   0  0  0  0  0  0  0  0  0  0  0  0
   29.6600   11.4670   20.3920 C   0  0  0  0  0  0  0  0  0  0  0  0
   30.4050   12.1697   20.0491 H   0  0  0  0  0  0  0  0  0  0  0  0
   29.0220    9.6340   21.7960 C   0  0  0  0  0  0  0  0  0  0  0  0
   29.2659    8.9063   22.5558 H   0  0  0  0  0  0  0  0  0  0  0  0
  1  4  2  0  0  0  0
  1  5  1  0  0  0  0
  1  6  1  0  0  0  0
  2  3  1  0  0  0  0
  2  5  1  0  0  0  0
  2  7  1  0  0  0  0
  5 14  1  0  0  0  0
  5 25  1  0  0  0  0
  6  7  1  0  0  0  0
  6 10  1  0  0  0  0
  7  8  2  0  0  0  0
  8  9  1  0  0  0  0
 10 11  1  0  0  0  0
 10 12  1  0  0  0  0
 10 13  1  0  0  0  0
 14 15  1  0  0  0  0
 14 23  2  0  0  0  0
 15 16  1  0  0  0  0
 15 17  2  0  0  0  0
 17 18  1  0  0  0  0
 17 19  1  0  0  0  0
 19 20  1  0  0  0  0
 19 21  2  0  0  0  0
 21 22  1  0  0  0  0
 21 23  1  0  0  0  0
 23 24  1  0  0  0  0
 25 26  1  0  0  0  0
 25 33  2  0  0  0  0
 26 27  1  0  0  0  0
 26 28  2  0  0  0  0
 28 29  1  0  0  0  0
 28 30  1  0  0  0  0
 30 31  1  0  0  0  0
 30 32  2  0  0  0  0
 32 33  1  0  0  0  0
 32 43  1  0  0  0  0
 33 34  1  0  0  0  0
 35 36  1  0  0  0  0
 35 46  2  0  0  0  0
 35 48  1  0  0  0  0
 36 37  1  0  0  0  0
 37 38  1  0  0  0  0
 37 39  1  0  0  0  0
 37 40  1  0  0  0  0
 41 42  1  0  0  0  0
 41 43  1  0  0  0  0
 41 48  2  0  0  0  0
 43 44  2  0  0  0  0
 44 45  1  0  0  0  0
 44 46  1  0  0  0  0
 46 47  1  0  0  0  0
 48 49  1  0  0  0  0
M  END
$$$$
bace1_merck_05_4d
  MOE2024           3D
bace1_merck_05_4d
 52 55  0  0  1  0  0  0  0  0999 V2000
   22.7570   11.7990   22.4270 C   0  0  0  0  0  0  0  0  0  0  0  0
   22.6810    9.4210   22.3170 N   0  0  0  0  0  0  0  0  0  0  0  0
   23.4132    8.7759   22.0053 H   0  0  0  0  0  0  0  0  0  0  0  0
   22.8440   12.9770   22.1420 O   0  0  0  0  0  0  0  0  0  0  0  0
   22.5140   10.6120   21.4190 C   0  0  3  0  0  0  0  0  0  0  0  0
   22.9280   11.2580   23.6800 N   0  0  0  0  0  0  0  0  0  0  0  0
   29.2689    8.6841   22.7652 O   0  0  0  0  0  0  0  0  0  0  0  0
   22.8380    9.8400   23.5830 C   0  0  0  0  0  0  0  0  0  0  0  0
   22.9660    9.0450   24.6440 N   0  0  0  0  0  0  0  0  0  0  0  0
   22.8669    8.0906   24.3683 H   0  0  0  0  0  0  0  0  0  0  0  0
   23.1650   12.0560   24.8900 C   0  0  0  0  0  0  0  0  0  0  0  0
   23.2663   11.3924   25.7488 H   0  0  0  0  0  0  0  0  0  0  0  0
   22.3248   12.7317   25.0500 H   0  0  0  0  0  0  0  0  0  0  0  0
   24.0798   12.6361   24.7692 H   0  0  0  0  0  0  0  0  0  0  0  0
   21.0800   10.6550   20.8550 C   0  0  0  0  0  0  0  0  0  0  0  0
   20.3230    9.4910   20.7580 C   0  0  0  0  0  0  0  0  0  0  0  0
   20.7504    8.5495   21.0701 H   0  0  0  0  0  0  0  0  0  0  0  0
   19.0200    9.5250   20.2630 C   0  0  0  0  0  0  0  0  0  0  0  0
   18.4485    8.6114   20.1910 H   0  0  0  0  0  0  0  0  0  0  0  0
   18.4590   10.7160   19.8660 C   0  0  0  0  0  0  0  0  0  0  0  0
   17.4467   10.7404   19.4904 H   0  0  0  0  0  0  0  0  0  0  0  0
   19.1970   11.8820   19.9500 C   0  0  0  0  0  0  0  0  0  0  0  0
   18.7593   12.8191   19.6392 H   0  0  0  0  0  0  0  0  0  0  0  0
   20.5030   11.8530   20.4340 C   0  0  0  0  0  0  0  0  0  0  0  0
   21.0748   12.7679   20.4838 H   0  0  0  0  0  0  0  0  0  0  0  0
   23.6230   10.6630   20.3520 C   0  0  0  0  0  0  0  0  0  0  0  0
   23.3320   10.9440   19.0190 C   0  0  0  0  0  0  0  0  0  0  0  0
   22.3024   11.0186   18.7017 H   0  0  0  0  0  0  0  0  0  0  0  0
   24.3490   11.1290   18.0950 C   0  0  0  0  0  0  0  0  0  0  0  0
   24.1093   11.3576   17.0670 H   0  0  0  0  0  0  0  0  0  0  0  0
   25.6700   11.0210   18.4890 C   0  0  0  0  0  0  0  0  0  0  0  0
   26.4586   11.1797   17.7684 H   0  0  0  0  0  0  0  0  0  0  0  0
   25.9930   10.7080   19.8130 C   0  0  0  0  0  0  0  0  0  0  0  0
   24.9570   10.5240   20.7360 C   0  0  0  0  0  0  0  0  0  0  0  0
   25.1934   10.2711   21.7590 H   0  0  0  0  0  0  0  0  0  0  0  0
   29.9780   10.5600   21.3930 C   0  0  0  0  0  0  0  0  0  0  0  0
   30.9551   10.5731   21.8530 H   0  0  0  0  0  0  0  0  0  0  0  0
   27.7540    9.6400   21.2260 C   0  0  0  0  0  0  0  0  0  0  0  0
   27.0262    8.9060   21.5390 H   0  0  0  0  0  0  0  0  0  0  0  0
   27.4080   10.5810   20.2550 C   0  0  0  0  0  0  0  0  0  0  0  0
   28.3890   11.4780   19.8270 C   0  0  0  0  0  0  0  0  0  0  0  0
   28.1580   12.1891   19.0476 H   0  0  0  0  0  0  0  0  0  0  0  0
   29.6600   11.4670   20.3920 C   0  0  0  0  0  0  0  0  0  0  0  0
   30.4050   12.1697   20.0491 H   0  0  0  0  0  0  0  0  0  0  0  0
   29.0220    9.6340   21.7960 C   0  0  0  0  0  0  0  0  0  0  0  0
   30.5188    8.4337   23.4508 C   0  0  0  0  0  0  0  0  0  0  0  0
   30.3217    7.8880   24.3746 H   0  0  0  0  0  0  0  0  0  0  0  0
   31.0349    9.3654   23.6836 H   0  0  0  0  0  0  0  0  0  0  0  0
   31.3451    7.5619   22.5033 C   0  0  0  0  0  0  0  0  0  0  0  0
   30.7990    6.6432   22.2870 H   0  0  0  0  0  0  0  0  0  0  0  0
   32.2974    7.3140   22.9716 H   0  0  0  0  0  0  0  0  0  0  0  0
   31.5300    8.0940   21.5703 H   0  0  0  0  0  0  0  0  0  0  0  0
  1  4  2  0  0  0  0
  1  5  1  0  0  0  0
  1  6  1  0  0  0  0
  2  3  1  0  0  0  0
  2  5  1  0  0  0  0
  2  8  1  0  0  0  0
  5 15  1  0  0  0  0
  5 26  1  0  0  0  0
  6  8  1  0  0  0  0
  6 11  1  0  0  0  0
  7 45  1  0  0  0  0
  7 46  1  0  0  0  0
  8  9  2  0  0  0  0
  9 10  1  0  0  0  0
 11 12  1  0  0  0  0
 11 13  1  0  0  0  0
 11 14  1  0  0  0  0
 15 16  1  0  0  0  0
 15 24  2  0  0  0  0
 16 17  1  0  0  0  0
 16 18  2  0  0  0  0
 18 19  1  0  0  0  0
 18 20  1  0  0  0  0
 20 21  1  0  0  0  0
 20 22  2  0  0  0  0
 22 23  1  0  0  0  0
 22 24  1  0  0  0  0
 24 25  1  0  0  0  0
 26 27  1  0  0  0  0
 26 34  2  0  0  0  0
 27 28  1  0  0  0  0
 27 29  2  0  0  0  0
 29 30  1  0  0  0  0
 29 31  1  0  0  0  0
 31 32  1  0  0  0  0
 31 33  2  0  0  0  0
 33 34  1  0  0  0  0
 33 40  1  0  0  0  0
 34 35  1  0  0  0  0
 36 37  1  0  0  0  0
 36 43  2  0  0  0  0
 36 45  1  0  0  0  0
 38 39  1  0  0  0  0
 38 40  1  0  0  0  0
 38 45  2  0  0  0  0
 40 41  2  0  0  0  0
 41 42  1  0  0  0  0
 41 43  1  0  0  0  0
 43 44  1  0  0  0  0
 46 47  1  0  0  0  0
 46 48  1  0  0  0  0
 46 49  1  0  0  0  0
 49 50  1  0  0  0  0
 49 51  1  0  0  0  0
 49 52  1  0  0  0  0
M  END
$$$$
bace1_merck_06_4e
  MOE2024           3D
bace1_merck_06_4e
 35 37  0  0  1  0  0  0  0  0999 V2000
   22.1380   12.0320   22.7480 C   0  0  0  0  0  0  0  0  0  0  0  0
   22.2470    9.6540   22.5240 N   0  0  0  0  0  0  0  0  0  0  0  0
   22.8686    8.9756   22.0849 H   0  0  0  0  0  0  0  0  0  0  0  0
   21.9740   13.2220   22.5510 O   0  0  0  0  0  0  0  0  0  0  0  0
   21.8910   10.8690   21.7450 C   0  0  3  0  0  0  0  0  0  0  0  0
   22.5720   11.4700   23.9270 N   0  0  0  0  0  0  0  0  0  0  0  0
   22.6120   10.0530   23.7640 C   0  0  0  0  0  0  0  0  0  0  0  0
   22.9830    9.2420   24.7530 N   0  0  0  0  0  0  0  0  0  0  0  0
   22.9128    8.2899   24.4618 H   0  0  0  0  0  0  0  0  0  0  0  0
   22.8990   12.2550   25.1230 C   0  0  0  0  0  0  0  0  0  0  0  0
   22.7633   13.3153   24.9099 H   0  0  0  0  0  0  0  0  0  0  0  0
   23.9354   12.0711   25.4062 H   0  0  0  0  0  0  0  0  0  0  0  0
   22.2412   11.9617   25.9412 H   0  0  0  0  0  0  0  0  0  0  0  0
   20.4110   10.7090   21.3470 C   0  0  0  0  0  0  0  0  0  0  0  0
   20.0250    9.7740   20.3920 C   0  0  0  0  0  0  0  0  0  0  0  0
   20.7714    9.1457   19.9289 H   0  0  0  0  0  0  0  0  0  0  0  0
   18.6900    9.6380   20.0260 C   0  0  0  0  0  0  0  0  0  0  0  0
   18.4076    8.9078   19.2821 H   0  0  0  0  0  0  0  0  0  0  0  0
   17.7240   10.4340   20.6110 C   0  0  0  0  0  0  0  0  0  0  0  0
   16.6888   10.3347   20.3196 H   0  0  0  0  0  0  0  0  0  0  0  0
   18.0890   11.3550   21.5680 C   0  0  0  0  0  0  0  0  0  0  0  0
   17.3362   11.9742   22.0330 H   0  0  0  0  0  0  0  0  0  0  0  0
   19.4220   11.4910   21.9380 C   0  0  0  0  0  0  0  0  0  0  0  0
   19.6942   12.2128   22.6939 H   0  0  0  0  0  0  0  0  0  0  0  0
   22.7750   11.1020   20.5060 C   0  0  0  0  0  0  0  0  0  0  0  0
   22.5930   12.2150   19.6860 C   0  0  0  0  0  0  0  0  0  0  0  0
   21.8042   12.9183   19.9088 H   0  0  0  0  0  0  0  0  0  0  0  0
   23.4160   12.4310   18.5830 C   0  0  0  0  0  0  0  0  0  0  0  0
   23.2582   13.2955   17.9553 H   0  0  0  0  0  0  0  0  0  0  0  0
   24.4330   11.5440   18.2890 C   0  0  0  0  0  0  0  0  0  0  0  0
   25.0738   11.7157   17.4368 H   0  0  0  0  0  0  0  0  0  0  0  0
   24.6260   10.4360   19.0910 C   0  0  0  0  0  0  0  0  0  0  0  0
   25.6458    9.5433   18.8011 F   0  0  0  0  0  0  0  0  0  0  0  0
   23.7990   10.2120   20.1910 C   0  0  0  0  0  0  0  0  0  0  0  0
   23.9543    9.3380   20.8061 H   0  0  0  0  0  0  0  0  0  0  0  0
  1  4  2  0  0  0  0
  1  5  1  0  0  0  0
  1  6  1  0  0  0  0
  2  3  1  0  0  0  0
  2  5  1  0  0  0  0
  2  7  1  0  0  0  0
  5 14  1  0  0  0  0
  5 25  1  0  0  0  0
  6  7  1  0  0  0  0
  6 10  1  0  0  0  0
  7  8  2  0  0  0  0
  8  9  1  0  0  0  0
 10 11  1  0  0  0  0
 10 12  1  0  0  0  0
 10 13  1  0  0  0  0
 14 15  1  0  0  0  0
 14 23  2  0  0  0  0
 15 16  1  0  0  0  0
 15 17  2  0  0  0  0
 17 18  1  0  0  0  0
 17 19  1  0  0  0  0
 19 20  1  0  0  0  0
 19 21  2  0  0  0  0
 21 22  1  0  0  0  0
 21 23  1  0  0  0  0
 23 24  1  0  0  0  0
 25 26  1  0  0  0  0
 25 34  2  0  0  0  0
 26 27  1  0  0  0  0
 26 28  2  0  0  0  0
 28 29  1  0  0  0  0
 28 30  1  0  0  0  0
 30 31  1  0  0  0  0
 30 32  2  0  0  0  0
 32 33  1  0  0  0  0
 32 34  1  0  0  0  0
 34 35  1  0  0  0  0
M  END
$$$$
bace1_merck_07_4f
  MOE2024           3D
bace1_merck_07_4f
 35 37  0  0  1  0  0  0  0  0999 V2000
   22.1380   12.0320   22.7480 C   0  0  0  0  0  0  0  0  0  0  0  0
   22.2470    9.6540   22.5240 N   0  0  0  0  0  0  0  0  0  0  0  0
   22.8686    8.9756   22.0849 H   0  0  0  0  0  0  0  0  0  0  0  0
   21.9740   13.2220   22.5510 O   0  0  0  0  0  0  0  0  0  0  0  0
   21.8910   10.8690   21.7450 C   0  0  3  0  0  0  0  0  0  0  0  0
   22.5720   11.4700   23.9270 N   0  0  0  0  0  0  0  0  0  0  0  0
   22.6120   10.0530   23.7640 C   0  0  0  0  0  0  0  0  0  0  0  0
   22.9830    9.2420   24.7530 N   0  0  0  0  0  0  0  0  0  0  0  0
   22.9128    8.2899   24.4618 H   0  0  0  0  0  0  0  0  0  0  0  0
   22.8990   12.2550   25.1230 C   0  0  0  0  0  0  0  0  0  0  0  0
   22.7633   13.3153   24.9099 H   0  0  0  0  0  0  0  0  0  0  0  0
   23.9354   12.0711   25.4062 H   0  0  0  0  0  0  0  0  0  0  0  0
   22.2412   11.9617   25.9412 H   0  0  0  0  0  0  0  0  0  0  0  0
   20.4110   10.7090   21.3470 C   0  0  0  0  0  0  0  0  0  0  0  0
   20.0250    9.7740   20.3920 C   0  0  0  0  0  0  0  0  0  0  0  0
   20.7714    9.1457   19.9289 H   0  0  0  0  0  0  0  0  0  0  0  0
   18.6900    9.6380   20.0260 C   0  0  0  0  0  0  0  0  0  0  0  0
   18.4076    8.9078   19.2821 H   0  0  0  0  0  0  0  0  0  0  0  0
   17.7240   10.4340   20.6110 C   0  0  0  0  0  0  0  0  0  0  0  0
   16.6888   10.3347   20.3196 H   0  0  0  0  0  0  0  0  0  0  0  0
   18.0890   11.3550   21.5680 C   0  0  0  0  0  0  0  0  0  0  0  0
   17.3362   11.9742   22.0330 H   0  0  0  0  0  0  0  0  0  0  0  0
   19.4220   11.4910   21.9380 C   0  0  0  0  0  0  0  0  0  0  0  0
   19.6942   12.2128   22.6939 H   0  0  0  0  0  0  0  0  0  0  0  0
   22.7750   11.1020   20.5060 C   0  0  0  0  0  0  0  0  0  0  0  0
   22.5930   12.2150   19.6860 C   0  0  0  0  0  0  0  0  0  0  0  0
   21.8042   12.9183   19.9088 H   0  0  0  0  0  0  0  0  0  0  0  0
   23.4160   12.4310   18.5830 C   0  0  0  0  0  0  0  0  0  0  0  0
   23.2582   13.2955   17.9553 H   0  0  0  0  0  0  0  0  0  0  0  0
   24.4330   11.5440   18.2890 C   0  0  0  0  0  0  0  0  0  0  0  0
   25.0738   11.7157   17.4368 H   0  0  0  0  0  0  0  0  0  0  0  0
   24.6260   10.4360   19.0910 C   0  0  0  0  0  0  0  0  0  0  0  0
   25.9163    9.3066   18.7242 Cl  0  0  0  0  0  0  0  0  0  0  0  0
   23.7990   10.2120   20.1910 C   0  0  0  0  0  0  0  0  0  0  0  0
   23.9543    9.3380   20.8061 H   0  0  0  0  0  0  0  0  0  0  0  0
  1  4  2  0  0  0  0
  1  5  1  0  0  0  0
  1  6  1  0  0  0  0
  2  3  1  0  0  0  0
  2  5  1  0  0  0  0
  2  7  1  0  0  0  0
  5 14  1  0  0  0  0
  5 25  1  0  0  0  0
  6  7  1  0  0  0  0
  6 10  1  0  0  0  0
  7  8  2  0  0  0  0
  8  9  1  0  0  0  0
 10 11  1  0  0  0  0
 10 12  1  0  0  0  0
 10 13  1  0  0  0  0
 14 15  1  0  0  0  0
 14 23  2  0  0  0  0
 15 16  1  0  0  0  0
 15 17  2  0  0  0  0
 17 18  1  0  0  0  0
 17 19  1  0  0  0  0
 19 20  1  0  0  0  0
 19 21  2  0  0  0  0
 21 22  1  0  0  0  0
 21 23  1  0  0  0  0
 23 24  1  0  0  0  0
 25 26  1  0  0  0  0
 25 34  2  0  0  0  0
 26 27  1  0  0  0  0
 26 28  2  0  0  0  0
 28 29  1  0  0  0  0
 28 30  1  0  0  0  0
 30 31  1  0  0  0  0
 30 32  2  0  0  0  0
 32 33  1  0  0  0  0
 32 34  1  0  0  0  0
 34 35  1  0  0  0  0
M  END
$$$$
bace1_merck_08_4g
  MOE2024           3D
bace1_merck_08_4g
 38 40  0  0  1  0  0  0  0  0999 V2000
   22.1380   12.0320   22.7480 C   0  0  0  0  0  0  0  0  0  0  0  0
   22.2470    9.6540   22.5240 N   0  0  0  0  0  0  0  0  0  0  0  0
   22.8686    8.9756   22.0849 H   0  0  0  0  0  0  0  0  0  0  0  0
   21.9740   13.2220   22.5510 O   0  0  0  0  0  0  0  0  0  0  0  0
   21.8910   10.8690   21.7450 C   0  0  3  0  0  0  0  0  0  0  0  0
   22.5720   11.4700   23.9270 N   0  0  0  0  0  0  0  0  0  0  0  0
   22.6120   10.0530   23.7640 C   0  0  0  0  0  0  0  0  0  0  0  0
   22.9830    9.2420   24.7530 N   0  0  0  0  0  0  0  0  0  0  0  0
   22.9128    8.2899   24.4618 H   0  0  0  0  0  0  0  0  0  0  0  0
   22.8990   12.2550   25.1230 C   0  0  0  0  0  0  0  0  0  0  0  0
   22.7633   13.3153   24.9099 H   0  0  0  0  0  0  0  0  0  0  0  0
   23.9354   12.0711   25.4062 H   0  0  0  0  0  0  0  0  0  0  0  0
   22.2412   11.9617   25.9412 H   0  0  0  0  0  0  0  0  0  0  0  0
   20.4110   10.7090   21.3470 C   0  0  0  0  0  0  0  0  0  0  0  0
   20.0250    9.7740   20.3920 C   0  0  0  0  0  0  0  0  0  0  0  0
   20.7714    9.1457   19.9289 H   0  0  0  0  0  0  0  0  0  0  0  0
   18.6900    9.6380   20.0260 C   0  0  0  0  0  0  0  0  0  0  0  0
   18.4076    8.9078   19.2821 H   0  0  0  0  0  0  0  0  0  0  0  0
   17.7240   10.4340   20.6110 C   0  0  0  0  0  0  0  0  0  0  0  0
   16.6888   10.3347   20.3196 H   0  0  0  0  0  0  0  0  0  0  0  0
   18.0890   11.3550   21.5680 C   0  0  0  0  0  0  0  0  0  0  0  0
   17.3362   11.9742   22.0330 H   0  0  0  0  0  0  0  0  0  0  0  0
   19.4220   11.4910   21.9380 C   0  0  0  0  0  0  0  0  0  0  0  0
   19.6942   12.2128   22.6939 H   0  0  0  0  0  0  0  0  0  0  0  0
   22.7750   11.1020   20.5060 C   0  0  0  0  0  0  0  0  0  0  0  0
   22.5930   12.2150   19.6860 C   0  0  0  0  0  0  0  0  0  0  0  0
   21.8042   12.9183   19.9088 H   0  0  0  0  0  0  0  0  0  0  0  0
   23.4160   12.4310   18.5830 C   0  0  0  0  0  0  0  0  0  0  0  0
   23.2582   13.2955   17.9553 H   0  0  0  0  0  0  0  0  0  0  0  0
   24.4330   11.5440   18.2890 C   0  0  0  0  0  0  0  0  0  0  0  0
   25.0738   11.7157   17.4368 H   0  0  0  0  0  0  0  0  0  0  0  0
   24.6260   10.4360   19.0910 C   0  0  0  0  0  0  0  0  0  0  0  0
   25.7352    9.4525   18.7838 C   0  0  0  0  0  0  0  0  0  0  0  0
   26.2743    9.7748   17.8927 H   0  0  0  0  0  0  0  0  0  0  0  0
   25.2862    8.4735   18.6154 H   0  0  0  0  0  0  0  0  0  0  0  0
   26.4103    9.4234   19.6393 H   0  0  0  0  0  0  0  0  0  0  0  0
   23.7990   10.2120   20.1910 C   0  0  0  0  0  0  0  0  0  0  0  0
   23.9543    9.3380   20.8061 H   0  0  0  0  0  0  0  0  0  0  0  0
  1  4  2  0  0  0  0
  1  5  1  0  0  0  0
  1  6  1  0  0  0  0
  2  3  1  0  0  0  0
  2  5  1  0  0  0  0
  2  7  1  0  0  0  0
  5 14  1  0  0  0  0
  5 25  1  0  0  0  0
  6  7  1  0  0  0  0
  6 10  1  0  0  0  0
  7  8  2  0  0  0  0
  8  9  1  0  0  0  0
 10 11  1  0  0  0  0
 10 12  1  0  0  0  0
 10 13  1  0  0  0  0
 14 15  1  0  0  0  0
 14 23  2  0  0  0  0
 15 16  1  0  0  0  0
 15 17  2  0  0  0  0
 17 18  1  0  0  0  0
 17 19  1  0  0  0  0
 19 20  1  0  0  0  0
 19 21  2  0  0  0  0
 21 22  1  0  0  0  0
 21 23  1  0  0  0  0
 23 24  1  0  0  0  0
 25 26  1  0  0  0  0
 25 37  2  0  0  0  0
 26 27  1  0  0  0  0
 26 28  2  0  0  0  0
 28 29  1  0  0  0  0
 28 30  1  0  0  0  0
 30 31  1  0  0  0  0
 30 32  2  0  0  0  0
 32 33  1  0  0  0  0
 32 37  1  0  0  0  0
 33 34  1  0  0  0  0
 33 35  1  0  0  0  0
 33 36  1  0  0  0  0
 37 38  1  0  0  0  0
M  END
$$$$
bace1_merck_09_4h
  MOE2024           3D
bace1_merck_09_4h
 36 38  0  0  1  0  0  0  0  0999 V2000
   22.1380   12.0320   22.7480 C   0  0  0  0  0  0  0  0  0  0  0  0
   22.2470    9.6540   22.5240 N   0  0  0  0  0  0  0  0  0  0  0  0
   22.8686    8.9756   22.0849 H   0  0  0  0  0  0  0  0  0  0  0  0
   21.9740   13.2220   22.5510 O   0  0  0  0  0  0  0  0  0  0  0  0
   21.8910   10.8690   21.7450 C   0  0  3  0  0  0  0  0  0  0  0  0
   22.5720   11.4700   23.9270 N   0  0  0  0  0  0  0  0  0  0  0  0
   22.6120   10.0530   23.7640 C   0  0  0  0  0  0  0  0  0  0  0  0
   22.9830    9.2420   24.7530 N   0  0  0  0  0  0  0  0  0  0  0  0
   22.9128    8.2899   24.4618 H   0  0  0  0  0  0  0  0  0  0  0  0
   22.8990   12.2550   25.1230 C   0  0  0  0  0  0  0  0  0  0  0  0
   22.7633   13.3153   24.9099 H   0  0  0  0  0  0  0  0  0  0  0  0
   23.9354   12.0711   25.4062 H   0  0  0  0  0  0  0  0  0  0  0  0
   22.2412   11.9617   25.9412 H   0  0  0  0  0  0  0  0  0  0  0  0
   20.4110   10.7090   21.3470 C   0  0  0  0  0  0  0  0  0  0  0  0
   20.0250    9.7740   20.3920 C   0  0  0  0  0  0  0  0  0  0  0  0
   20.7714    9.1457   19.9289 H   0  0  0  0  0  0  0  0  0  0  0  0
   18.6900    9.6380   20.0260 C   0  0  0  0  0  0  0  0  0  0  0  0
   18.4076    8.9078   19.2821 H   0  0  0  0  0  0  0  0  0  0  0  0
   17.7240   10.4340   20.6110 C   0  0  0  0  0  0  0  0  0  0  0  0
   16.6888   10.3347   20.3196 H   0  0  0  0  0  0  0  0  0  0  0  0
   18.0890   11.3550   21.5680 C   0  0  0  0  0  0  0  0  0  0  0  0
   17.3362   11.9742   22.0330 H   0  0  0  0  0  0  0  0  0  0  0  0
   19.4220   11.4910   21.9380 C   0  0  0  0  0  0  0  0  0  0  0  0
   19.6942   12.2128   22.6939 H   0  0  0  0  0  0  0  0  0  0  0  0
   22.7750   11.1020   20.5060 C   0  0  0  0  0  0  0  0  0  0  0  0
   22.5930   12.2150   19.6860 C   0  0  0  0  0  0  0  0  0  0  0  0
   21.8042   12.9183   19.9088 H   0  0  0  0  0  0  0  0  0  0  0  0
   23.4160   12.4310   18.5830 C   0  0  0  0  0  0  0  0  0  0  0  0
   23.2582   13.2955   17.9553 H   0  0  0  0  0  0  0  0  0  0  0  0
   24.4330   11.5440   18.2890 C   0  0  0  0  0  0  0  0  0  0  0  0
   25.0738   11.7157   17.4368 H   0  0  0  0  0  0  0  0  0  0  0  0
   24.6260   10.4360   19.0910 C   0  0  0  0  0  0  0  0  0  0  0  0
   23.7990   10.2120   20.1910 C   0  0  0  0  0  0  0  0  0  0  0  0
   23.9543    9.3380   20.8061 H   0  0  0  0  0  0  0  0  0  0  0  0
   25.6817    9.5032   18.7890 C   0  0  0  0  0  0  0  0  0  0  0  0
   26.5146    8.7577   18.5557 N   0  0  0  0  0  0  0  0  0  0  0  0
  1  4  2  0  0  0  0
  1  5  1  0  0  0  0
  1  6  1  0  0  0  0
  2  3  1  0  0  0  0
  2  5  1  0  0  0  0
  2  7  1  0  0  0  0
  5 14  1  0  0  0  0
  5 25  1  0  0  0  0
  6  7  1  0  0  0  0
  6 10  1  0  0  0  0
  7  8  2  0  0  0  0
  8  9  1  0  0  0  0
 10 11  1  0  0  0  0
 10 12  1  0  0  0  0
 10 13  1  0  0  0  0
 14 15  1  0  0  0  0
 14 23  2  0  0  0  0
 15 16  1  0  0  0  0
 15 17  2  0  0  0  0
 17 18  1  0  0  0  0
 17 19  1  0  0  0  0
 19 20  1  0  0  0  0
 19 21  2  0  0  0  0
 21 22  1  0  0  0  0
 21 23  1  0  0  0  0
 23 24  1  0  0  0  0
 25 26  1  0  0  0  0
 25 33  2  0  0  0  0
 26 27  1  0  0  0  0
 26 28  2  0  0  0  0
 28 29  1  0  0  0  0
 28 30  1  0  0  0  0
 30 31  1  0  0  0  0
 30 32  2  0  0  0  0
 32 33  1  0  0  0  0
 32 35  1  0  0  0  0
 33 34  1  0  0  0  0
 35 36  3  0  0  0  0
M  END
$$$$
bace1_merck_10_4i
  MOE2024           3D
bace1_merck_10_4i
 44 47  0  0  1  0  0  0  0  0999 V2000
   22.3600   13.0630   22.3480 O   0  0  0  0  0  0  0  0  0  0  0  0
   22.4950   11.8750   22.5810 C   0  0  0  0  0  0  0  0  0  0  0  0
   22.3390   10.6680   21.5610 C   0  0  3  0  0  0  0  0  0  0  0  0
   22.5380    9.4930   22.4640 N   0  0  0  0  0  0  0  0  0  0  0  0
   22.4950    8.5255   22.1772 H   0  0  0  0  0  0  0  0  0  0  0  0
   22.7800    9.9140   23.7010 C   0  0  0  0  0  0  0  0  0  0  0  0
   22.7860   11.3350   23.8120 N   0  0  0  0  0  0  0  0  0  0  0  0
   22.9970    9.1110   24.7490 N   0  0  0  0  0  0  0  0  0  0  0  0
   23.1735    9.5075   25.6610 H   0  0  0  0  0  0  0  0  0  0  0  0
   23.0220   12.1410   25.0180 C   0  0  0  0  0  0  0  0  0  0  0  0
   23.2318   11.4817   25.8603 H   0  0  0  0  0  0  0  0  0  0  0  0
   22.1361   12.7376   25.2354 H   0  0  0  0  0  0  0  0  0  0  0  0
   23.8732   12.8015   24.8528 H   0  0  0  0  0  0  0  0  0  0  0  0
   20.9020   10.6270   21.0050 C   0  0  0  0  0  0  0  0  0  0  0  0
   20.2720    9.4140   20.7470 C   0  0  0  0  0  0  0  0  0  0  0  0
   20.8009    8.4898   20.9270 H   0  0  0  0  0  0  0  0  0  0  0  0
   18.9690    9.3760   20.2600 C   0  0  0  0  0  0  0  0  0  0  0  0
   18.4952    8.4246   20.0683 H   0  0  0  0  0  0  0  0  0  0  0  0
   18.2718   10.5432   20.0157 C   0  0  0  0  0  0  0  0  0  0  0  0
   17.2784   10.5111   19.6465 H   0  0  0  0  0  0  0  0  0  0  0  0
   18.8920   11.7530   20.2590 C   0  0  0  0  0  0  0  0  0  0  0  0
   18.3582   12.6723   20.0684 H   0  0  0  0  0  0  0  0  0  0  0  0
   20.1950   11.7970   20.7440 C   0  0  0  0  0  0  0  0  0  0  0  0
   20.6649   12.7532   20.9206 H   0  0  0  0  0  0  0  0  0  0  0  0
   23.4880   10.6920   20.5300 C   0  0  0  0  0  0  0  0  0  0  0  0
   23.2110   10.7890   19.1730 C   0  0  0  0  0  0  0  0  0  0  0  0
   22.1843   10.8054   18.8382 H   0  0  0  0  0  0  0  0  0  0  0  0
   24.2350   10.8650   18.2430 C   0  0  0  0  0  0  0  0  0  0  0  0
   24.0024   10.9433   17.1913 H   0  0  0  0  0  0  0  0  0  0  0  0
   25.5500   10.8410   18.6560 C   0  0  0  0  0  0  0  0  0  0  0  0
   26.3407   10.8966   17.9224 H   0  0  0  0  0  0  0  0  0  0  0  0
   25.8710   10.7460   20.0070 C   0  0  0  0  0  0  0  0  0  0  0  0
   24.8260   10.6610   20.9430 C   0  0  0  0  0  0  0  0  0  0  0  0
   25.0576   10.5706   21.9940 H   0  0  0  0  0  0  0  0  0  0  0  0
   29.8887   10.8531   21.3547 C   0  0  0  0  0  0  0  0  0  0  0  0
   30.8856   10.8372   21.7120 H   0  0  0  0  0  0  0  0  0  0  0  0
   29.0502    9.7652   21.5775 C   0  0  0  0  0  0  0  0  0  0  0  0
   29.4039    8.9162   22.1061 H   0  0  0  0  0  0  0  0  0  0  0  0
   27.7936    9.7512   21.1431 N   0  0  0  0  0  0  0  0  0  0  0  0
   27.3000   10.8010   20.4650 C   0  0  0  0  0  0  0  0  0  0  0  0
   28.0930   11.9190   20.2200 C   0  0  0  0  0  0  0  0  0  0  0  0
   27.6843   12.7419   19.6943 H   0  0  0  0  0  0  0  0  0  0  0  0
   29.4057   11.9550   20.6640 C   0  0  0  0  0  0  0  0  0  0  0  0
   30.0213   12.7993   20.4827 H   0  0  0  0  0  0  0  0  0  0  0  0
  1  2  2  0  0  0  0
  2  3  1  0  0  0  0
  2  7  1  0  0  0  0
  3  4  1  0  0  0  0
  3 14  1  0  0  0  0
  3 25  1  0  0  0  0
  4  5  1  0  0  0  0
  4  6  1  0  0  0  0
  6  7  1  0  0  0  0
  6  8  2  0  0  0  0
  7 10  1  0  0  0  0
  8  9  1  0  0  0  0
 10 11  1  0  0  0  0
 10 12  1  0  0  0  0
 10 13  1  0  0  0  0
 14 15  1  0  0  0  0
 14 23  2  0  0  0  0
 15 16  1  0  0  0  0
 15 17  2  0  0  0  0
 17 18  1  0  0  0  0
 17 19  1  0  0  0  0
 19 20  1  0  0  0  0
 19 21  2  0  0  0  0
 21 22  1  0  0  0  0
 21 23  1  0  0  0  0
 23 24  1  0  0  0  0
 25 26  1  0  0  0  0
 25 33  2  0  0  0  0
 26 27  1  0  0  0  0
 26 28  2  0  0  0  0
 28 29  1  0  0  0  0
 28 30  1  0  0  0  0
 30 31  1  0  0  0  0
 30 32  2  0  0  0  0
 32 33  1  0  0  0  0
 32 40  1  0  0  0  0
 33 34  1  0  0  0  0
 35 36  1  0  0  0  0
 35 37  1  0  0  0  0
 35 43  2  0  0  0  0
 37 38  1  0  0  0  0
 37 39  2  0  0  0  0
 39 40  1  0  0  0  0
 40 41  2  0  0  0  0
 41 42  1  0  0  0  0
 41 43  1  0  0  0  0
 43 44  1  0  0  0  0
M  END
$$$$
bace1_merck_11_4j_4djw
  MOE2024           3D
bace1_merck_11_4j_4djw
 44 47  0  0  1  0  0  0  0  0999 V2000
   22.3600   13.0630   22.3480 O   0  0  0  0  0  0  0  0  0  0  0  0
   22.4950   11.8750   22.5810 C   0  0  0  0  0  0  0  0  0  0  0  0
   22.3390   10.6680   21.5610 C   0  0  3  0  0  0  0  0  0  0  0  0
   22.5380    9.4930   22.4640 N   0  0  0  0  0  0  0  0  0  0  0  0
   22.4950    8.5255   22.1772 H   0  0  0  0  0  0  0  0  0  0  0  0
   22.7800    9.9140   23.7010 C   0  0  0  0  0  0  0  0  0  0  0  0
   22.7860   11.3350   23.8120 N   0  0  0  0  0  0  0  0  0  0  0  0
   22.9970    9.1110   24.7490 N   0  0  0  0  0  0  0  0  0  0  0  0
   23.1735    9.5075   25.6610 H   0  0  0  0  0  0  0  0  0  0  0  0
   23.0220   12.1410   25.0180 C   0  0  0  0  0  0  0  0  0  0  0  0
   23.2318   11.4817   25.8603 H   0  0  0  0  0  0  0  0  0  0  0  0
   22.1361   12.7376   25.2354 H   0  0  0  0  0  0  0  0  0  0  0  0
   23.8732   12.8015   24.8528 H   0  0  0  0  0  0  0  0  0  0  0  0
   20.9020   10.6270   21.0050 C   0  0  0  0  0  0  0  0  0  0  0  0
   20.2720    9.4140   20.7470 C   0  0  0  0  0  0  0  0  0  0  0  0
   20.8009    8.4898   20.9270 H   0  0  0  0  0  0  0  0  0  0  0  0
   18.9690    9.3760   20.2600 C   0  0  0  0  0  0  0  0  0  0  0  0
   18.4952    8.4246   20.0683 H   0  0  0  0  0  0  0  0  0  0  0  0
   18.2800   10.5440   20.0210 C   0  0  0  0  0  0  0  0  0  0  0  0
   17.2665   10.5113   19.6494 H   0  0  0  0  0  0  0  0  0  0  0  0
   18.8920   11.7530   20.2590 C   0  0  0  0  0  0  0  0  0  0  0  0
   18.3582   12.6723   20.0684 H   0  0  0  0  0  0  0  0  0  0  0  0
   20.1950   11.7970   20.7440 C   0  0  0  0  0  0  0  0  0  0  0  0
   20.6649   12.7532   20.9206 H   0  0  0  0  0  0  0  0  0  0  0  0
   23.4880   10.6920   20.5300 C   0  0  0  0  0  0  0  0  0  0  0  0
   23.2110   10.7890   19.1730 C   0  0  0  0  0  0  0  0  0  0  0  0
   22.1843   10.8054   18.8382 H   0  0  0  0  0  0  0  0  0  0  0  0
   24.2350   10.8650   18.2430 C   0  0  0  0  0  0  0  0  0  0  0  0
   24.0024   10.9433   17.1913 H   0  0  0  0  0  0  0  0  0  0  0  0
   25.5500   10.8410   18.6560 C   0  0  0  0  0  0  0  0  0  0  0  0
   26.3407   10.8966   17.9224 H   0  0  0  0  0  0  0  0  0  0  0  0
   25.8710   10.7460   20.0070 C   0  0  0  0  0  0  0  0  0  0  0  0
   24.8260   10.6610   20.9430 C   0  0  0  0  0  0  0  0  0  0  0  0
   25.0576   10.5706   21.9940 H   0  0  0  0  0  0  0  0  0  0  0  0
   29.8540   10.9130   21.4510 C   0  0  0  0  0  0  0  0  0  0  0  0
   30.8602   10.9619   21.8402 H   0  0  0  0  0  0  0  0  0  0  0  0
   29.1260    9.8230   21.7090 N   0  0  0  0  0  0  0  0  0  0  0  0
   27.8830    9.7800   21.2080 C   0  0  0  0  0  0  0  0  0  0  0  0
   27.2952    8.8932   21.3939 H   0  0  0  0  0  0  0  0  0  0  0  0
   27.3000   10.8010   20.4650 C   0  0  0  0  0  0  0  0  0  0  0  0
   28.0930   11.9190   20.2200 C   0  0  0  0  0  0  0  0  0  0  0  0
   27.6987   12.7427   19.6435 H   0  0  0  0  0  0  0  0  0  0  0  0
   29.3850   11.9780   20.7130 C   0  0  0  0  0  0  0  0  0  0  0  0
   30.0104   12.8379   20.5238 H   0  0  0  0  0  0  0  0  0  0  0  0
  1  2  2  0  0  0  0
  2  3  1  0  0  0  0
  2  7  1  0  0  0  0
  3  4  1  0  0  0  0
  3 14  1  0  0  0  0
  3 25  1  0  0  0  0
  4  5  1  0  0  0  0
  4  6  1  0  0  0  0
  6  7  1  0  0  0  0
  6  8  2  0  0  0  0
  7 10  1  0  0  0  0
  8  9  1  0  0  0  0
 10 11  1  0  0  0  0
 10 12  1  0  0  0  0
 10 13  1  0  0  0  0
 14 15  1  0  0  0  0
 14 23  2  0  0  0  0
 15 16  1  0  0  0  0
 15 17  2  0  0  0  0
 17 18  1  0  0  0  0
 17 19  1  0  0  0  0
 19 20  1  0  0  0  0
 19 21  2  0  0  0  0
 21 22  1  0  0  0  0
 21 23  1  0  0  0  0
 23 24  1  0  0  0  0
 25 26  1  0  0  0  0
 25 33  2  0  0  0  0
 26 27  1  0  0  0  0
 26 28  2  0  0  0  0
 28 29  1  0  0  0  0
 28 30  1  0  0  0  0
 30 31  1  0  0  0  0
 30 32  2  0  0  0  0
 32 33  1  0  0  0  0
 32 40  1  0  0  0  0
 33 34  1  0  0  0  0
 35 36  1  0  0  0  0
 35 37  1  0  0  0  0
 35 43  2  0  0  0  0
 37 38  2  0  0  0  0
 38 39  1  0  0  0  0
 38 40  1  0  0  0  0
 40 41  2  0  0  0  0
 41 42  1  0  0  0  0
 41 43  1  0  0  0  0
 43 44  1  0  0  0  0
M  END
$$$$
bace1_merck_12_4k
  MOE2024           3D
bace1_merck_12_4k
 44 47  0  0  1  0  0  0  0  0999 V2000
   22.3600   13.0630   22.3480 O   0  0  0  0  0  0  0  0  0  0  0  0
   22.4950   11.8750   22.5810 C   0  0  0  0  0  0  0  0  0  0  0  0
   22.3390   10.6680   21.5610 C   0  0  3  0  0  0  0  0  0  0  0  0
   22.5380    9.4930   22.4640 N   0  0  0  0  0  0  0  0  0  0  0  0
   22.4950    8.5255   22.1772 H   0  0  0  0  0  0  0  0  0  0  0  0
   22.7800    9.9140   23.7010 C   0  0  0  0  0  0  0  0  0  0  0  0
   22.7860   11.3350   23.8120 N   0  0  0  0  0  0  0  0  0  0  0  0
   22.9970    9.1110   24.7490 N   0  0  0  0  0  0  0  0  0  0  0  0
   23.1735    9.5075   25.6610 H   0  0  0  0  0  0  0  0  0  0  0  0
   23.0220   12.1410   25.0180 C   0  0  0  0  0  0  0  0  0  0  0  0
   23.2318   11.4817   25.8603 H   0  0  0  0  0  0  0  0  0  0  0  0
   22.1361   12.7376   25.2354 H   0  0  0  0  0  0  0  0  0  0  0  0
   23.8732   12.8015   24.8528 H   0  0  0  0  0  0  0  0  0  0  0  0
   20.9020   10.6270   21.0050 C   0  0  0  0  0  0  0  0  0  0  0  0
   20.2720    9.4140   20.7470 C   0  0  0  0  0  0  0  0  0  0  0  0
   20.8009    8.4898   20.9270 H   0  0  0  0  0  0  0  0  0  0  0  0
   18.9690    9.3760   20.2600 C   0  0  0  0  0  0  0  0  0  0  0  0
   18.4952    8.4246   20.0683 H   0  0  0  0  0  0  0  0  0  0  0  0
   18.2800   10.5440   20.0210 C   0  0  0  0  0  0  0  0  0  0  0  0
   17.2665   10.5113   19.6494 H   0  0  0  0  0  0  0  0  0  0  0  0
   18.8920   11.7530   20.2590 C   0  0  0  0  0  0  0  0  0  0  0  0
   18.3582   12.6723   20.0684 H   0  0  0  0  0  0  0  0  0  0  0  0
   20.1950   11.7970   20.7440 C   0  0  0  0  0  0  0  0  0  0  0  0
   20.6649   12.7532   20.9206 H   0  0  0  0  0  0  0  0  0  0  0  0
   23.4880   10.6920   20.5300 C   0  0  0  0  0  0  0  0  0  0  0  0
   23.2110   10.7890   19.1730 C   0  0  0  0  0  0  0  0  0  0  0  0
   22.1843   10.8054   18.8382 H   0  0  0  0  0  0  0  0  0  0  0  0
   24.2350   10.8650   18.2430 C   0  0  0  0  0  0  0  0  0  0  0  0
   24.0024   10.9433   17.1913 H   0  0  0  0  0  0  0  0  0  0  0  0
   25.5500   10.8410   18.6560 C   0  0  0  0  0  0  0  0  0  0  0  0
   26.3407   10.8966   17.9224 H   0  0  0  0  0  0  0  0  0  0  0  0
   25.8710   10.7460   20.0070 C   0  0  0  0  0  0  0  0  0  0  0  0
   24.8260   10.6610   20.9430 C   0  0  0  0  0  0  0  0  0  0  0  0
   25.0576   10.5706   21.9940 H   0  0  0  0  0  0  0  0  0  0  0  0
   29.9224   10.6597   21.2807 N   0  0  0  0  0  0  0  0  0  0  0  0
   29.0732    9.7131   21.6788 C   0  0  0  0  0  0  0  0  0  0  0  0
   29.4432    8.9490   22.3150 H   0  0  0  0  0  0  0  0  0  0  0  0
   27.7417    9.7118   21.2820 C   0  0  0  0  0  0  0  0  0  0  0  0
   27.0933    8.9430   21.6127 H   0  0  0  0  0  0  0  0  0  0  0  0
   27.2622   10.7175   20.4438 C   0  0  0  0  0  0  0  0  0  0  0  0
   28.1740   11.6931   20.0437 C   0  0  0  0  0  0  0  0  0  0  0  0
   27.8619   12.4832   19.4121 H   0  0  0  0  0  0  0  0  0  0  0  0
   29.4918   11.6339   20.4801 C   0  0  0  0  0  0  0  0  0  0  0  0
   30.1892   12.3749   20.1801 H   0  0  0  0  0  0  0  0  0  0  0  0
  1  2  2  0  0  0  0
  2  3  1  0  0  0  0
  2  7  1  0  0  0  0
  3  4  1  0  0  0  0
  3 14  1  0  0  0  0
  3 25  1  0  0  0  0
  4  5  1  0  0  0  0
  4  6  1  0  0  0  0
  6  7  1  0  0  0  0
  6  8  2  0  0  0  0
  7 10  1  0  0  0  0
  8  9  1  0  0  0  0
 10 11  1  0  0  0  0
 10 12  1  0  0  0  0
 10 13  1  0  0  0  0
 14 15  1  0  0  0  0
 14 23  2  0  0  0  0
 15 16  1  0  0  0  0
 15 17  2  0  0  0  0
 17 18  1  0  0  0  0
 17 19  1  0  0  0  0
 19 20  1  0  0  0  0
 19 21  2  0  0  0  0
 21 22  1  0  0  0  0
 21 23  1  0  0  0  0
 23 24  1  0  0  0  0
 25 26  1  0  0  0  0
 25 33  2  0  0  0  0
 26 27  1  0  0  0  0
 26 28  2  0  0  0  0
 28 29  1  0  0  0  0
 28 30  1  0  0  0  0
 30 31  1  0  0  0  0
 30 32  2  0  0  0  0
 32 33  1  0  0  0  0
 32 40  1  0  0  0  0
 33 34  1  0  0  0  0
 35 36  1  0  0  0  0
 35 43  2  0  0  0  0
 36 37  1  0  0  0  0
 36 38  2  0  0  0  0
 38 39  1  0  0  0  0
 38 40  1  0  0  0  0
 40 41  2  0  0  0  0
 41 42  1  0  0  0  0
 41 43  1  0  0  0  0
 43 44  1  0  0  0  0
M  END
$$$$
bace1_merck_13_4l
  MOE2024           3D
bace1_merck_13_4l
 43 46  0  0  1  0  0  0  0  0999 V2000
   22.3600   13.0630   22.3480 O   0  0  0  0  0  0  0  0  0  0  0  0
   22.4950   11.8750   22.5810 C   0  0  0  0  0  0  0  0  0  0  0  0
   22.3390   10.6680   21.5610 C   0  0  3  0  0  0  0  0  0  0  0  0
   22.5380    9.4930   22.4640 N   0  0  0  0  0  0  0  0  0  0  0  0
   22.4950    8.5255   22.1772 H   0  0  0  0  0  0  0  0  0  0  0  0
   22.7800    9.9140   23.7010 C   0  0  0  0  0  0  0  0  0  0  0  0
   22.7860   11.3350   23.8120 N   0  0  0  0  0  0  0  0  0  0  0  0
   22.9970    9.1110   24.7490 N   0  0  0  0  0  0  0  0  0  0  0  0
   23.1735    9.5075   25.6610 H   0  0  0  0  0  0  0  0  0  0  0  0
   23.0220   12.1410   25.0180 C   0  0  0  0  0  0  0  0  0  0  0  0
   23.2318   11.4817   25.8603 H   0  0  0  0  0  0  0  0  0  0  0  0
   22.1361   12.7376   25.2354 H   0  0  0  0  0  0  0  0  0  0  0  0
   23.8732   12.8015   24.8528 H   0  0  0  0  0  0  0  0  0  0  0  0
   20.9020   10.6270   21.0050 C   0  0  0  0  0  0  0  0  0  0  0  0
   20.2720    9.4140   20.7470 C   0  0  0  0  0  0  0  0  0  0  0  0
   20.8009    8.4898   20.9270 H   0  0  0  0  0  0  0  0  0  0  0  0
   18.9690    9.3760   20.2600 C   0  0  0  0  0  0  0  0  0  0  0  0
   18.4952    8.4246   20.0683 H   0  0  0  0  0  0  0  0  0  0  0  0
   18.2800   10.5440   20.0210 C   0  0  0  0  0  0  0  0  0  0  0  0
   17.2665   10.5113   19.6494 H   0  0  0  0  0  0  0  0  0  0  0  0
   18.8920   11.7530   20.2590 C   0  0  0  0  0  0  0  0  0  0  0  0
   18.3582   12.6723   20.0684 H   0  0  0  0  0  0  0  0  0  0  0  0
   20.1950   11.7970   20.7440 C   0  0  0  0  0  0  0  0  0  0  0  0
   20.6649   12.7532   20.9206 H   0  0  0  0  0  0  0  0  0  0  0  0
   23.4880   10.6920   20.5300 C   0  0  0  0  0  0  0  0  0  0  0  0
   23.2110   10.7890   19.1730 C   0  0  0  0  0  0  0  0  0  0  0  0
   22.1843   10.8054   18.8382 H   0  0  0  0  0  0  0  0  0  0  0  0
   24.2350   10.8650   18.2430 C   0  0  0  0  0  0  0  0  0  0  0  0
   24.0024   10.9433   17.1913 H   0  0  0  0  0  0  0  0  0  0  0  0
   25.5500   10.8410   18.6560 C   0  0  0  0  0  0  0  0  0  0  0  0
   26.3407   10.8966   17.9224 H   0  0  0  0  0  0  0  0  0  0  0  0
   25.8710   10.7460   20.0070 C   0  0  0  0  0  0  0  0  0  0  0  0
   24.8260   10.6610   20.9430 C   0  0  0  0  0  0  0  0  0  0  0  0
   25.0576   10.5706   21.9940 H   0  0  0  0  0  0  0  0  0  0  0  0
   29.8150   10.6480   21.2860 C   0  0  0  0  0  0  0  0  0  0  0  0
   30.8265   10.6408   21.6031 H   0  0  0  0  0  0  0  0  0  0  0  0
   28.9555    9.8434   21.9099 N   0  0  0  0  0  0  0  0  0  0  0  0
   27.6938    9.8802   21.4845 C   0  0  0  0  0  0  0  0  0  0  0  0
   26.9954    9.2412   21.9602 H   0  0  0  0  0  0  0  0  0  0  0  0
   27.2701   10.7219   20.4389 C   0  0  0  0  0  0  0  0  0  0  0  0
   28.1545   11.5216   19.8157 N   0  0  0  0  0  0  0  0  0  0  0  0
   29.4141   11.4817   20.2409 C   0  0  0  0  0  0  0  0  0  0  0  0
   30.1220   12.1085   19.7618 H   0  0  0  0  0  0  0  0  0  0  0  0
  1  2  2  0  0  0  0
  2  3  1  0  0  0  0
  2  7  1  0  0  0  0
  3  4  1  0  0  0  0
  3 14  1  0  0  0  0
  3 25  1  0  0  0  0
  4  5  1  0  0  0  0
  4  6  1  0  0  0  0
  6  7  1  0  0  0  0
  6  8  2  0  0  0  0
  7 10  1  0  0  0  0
  8  9  1  0  0  0  0
 10 11  1  0  0  0  0
 10 12  1  0  0  0  0
 10 13  1  0  0  0  0
 14 15  1  0  0  0  0
 14 23  2  0  0  0  0
 15 16  1  0  0  0  0
 15 17  2  0  0  0  0
 17 18  1  0  0  0  0
 17 19  1  0  0  0  0
 19 20  1  0  0  0  0
 19 21  2  0  0  0  0
 21 22  1  0  0  0  0
 21 23  1  0  0  0  0
 23 24  1  0  0  0  0
 25 26  1  0  0  0  0
 25 33  2  0  0  0  0
 26 27  1  0  0  0  0
 26 28  2  0  0  0  0
 28 29  1  0  0  0  0
 28 30  1  0  0  0  0
 30 31  1  0  0  0  0
 30 32  2  0  0  0  0
 32 33  1  0  0  0  0
 32 40  1  0  0  0  0
 33 34  1  0  0  0  0
 35 36  1  0  0  0  0
 35 37  1  0  0  0  0
 35 42  2  0  0  0  0
 37 38  2  0  0  0  0
 38 39  1  0  0  0  0
 38 40  1  0  0  0  0
 40 41  2  0  0  0  0
 41 42  1  0  0  0  0
 42 43  1  0  0  0  0
M  END
$$$$
bace1_merck_14_4m
  MOE2024           3D
bace1_merck_14_4m
 47 50  0  0  1  0  0  0  0  0999 V2000
   22.3600   13.0630   22.3480 O   0  0  0  0  0  0  0  0  0  0  0  0
   22.4950   11.8750   22.5810 C   0  0  0  0  0  0  0  0  0  0  0  0
   22.3390   10.6680   21.5610 C   0  0  3  0  0  0  0  0  0  0  0  0
   22.5380    9.4930   22.4640 N   0  0  0  0  0  0  0  0  0  0  0  0
   22.4950    8.5255   22.1772 H   0  0  0  0  0  0  0  0  0  0  0  0
   22.7800    9.9140   23.7010 C   0  0  0  0  0  0  0  0  0  0  0  0
   22.7860   11.3350   23.8120 N   0  0  0  0  0  0  0  0  0  0  0  0
   22.9970    9.1110   24.7490 N   0  0  0  0  0  0  0  0  0  0  0  0
   23.1735    9.5075   25.6610 H   0  0  0  0  0  0  0  0  0  0  0  0
   23.0220   12.1410   25.0180 C   0  0  0  0  0  0  0  0  0  0  0  0
   23.2318   11.4817   25.8603 H   0  0  0  0  0  0  0  0  0  0  0  0
   22.1361   12.7376   25.2354 H   0  0  0  0  0  0  0  0  0  0  0  0
   23.8732   12.8015   24.8528 H   0  0  0  0  0  0  0  0  0  0  0  0
   20.9020   10.6270   21.0050 C   0  0  0  0  0  0  0  0  0  0  0  0
   20.2720    9.4140   20.7470 C   0  0  0  0  0  0  0  0  0  0  0  0
   20.8009    8.4898   20.9270 H   0  0  0  0  0  0  0  0  0  0  0  0
   18.9690    9.3760   20.2600 C   0  0  0  0  0  0  0  0  0  0  0  0
   18.4952    8.4246   20.0683 H   0  0  0  0  0  0  0  0  0  0  0  0
   18.2800   10.5440   20.0210 C   0  0  0  0  0  0  0  0  0  0  0  0
   17.2665   10.5113   19.6494 H   0  0  0  0  0  0  0  0  0  0  0  0
   18.8920   11.7530   20.2590 C   0  0  0  0  0  0  0  0  0  0  0  0
   18.3582   12.6723   20.0684 H   0  0  0  0  0  0  0  0  0  0  0  0
   20.1950   11.7970   20.7440 C   0  0  0  0  0  0  0  0  0  0  0  0
   20.6649   12.7532   20.9206 H   0  0  0  0  0  0  0  0  0  0  0  0
   23.4880   10.6920   20.5300 C   0  0  0  0  0  0  0  0  0  0  0  0
   23.2110   10.7890   19.1730 C   0  0  0  0  0  0  0  0  0  0  0  0
   22.1843   10.8054   18.8382 H   0  0  0  0  0  0  0  0  0  0  0  0
   24.2350   10.8650   18.2430 C   0  0  0  0  0  0  0  0  0  0  0  0
   24.0024   10.9433   17.1913 H   0  0  0  0  0  0  0  0  0  0  0  0
   25.5500   10.8410   18.6560 C   0  0  0  0  0  0  0  0  0  0  0  0
   26.3407   10.8966   17.9224 H   0  0  0  0  0  0  0  0  0  0  0  0
   25.8710   10.7460   20.0070 C   0  0  0  0  0  0  0  0  0  0  0  0
   24.8260   10.6610   20.9430 C   0  0  0  0  0  0  0  0  0  0  0  0
   25.0576   10.5706   21.9940 H   0  0  0  0  0  0  0  0  0  0  0  0
   29.8515   10.6432   21.3366 C   0  0  0  0  0  0  0  0  0  0  0  0
   30.8476   10.5863   21.6961 H   0  0  0  0  0  0  0  0  0  0  0  0
   28.9913    9.7124   21.7490 N   0  0  0  0  0  0  0  0  0  0  0  0
   27.7308    9.7470   21.3218 C   0  0  0  0  0  0  0  0  0  0  0  0
   27.0716    8.9905   21.6643 H   0  0  0  0  0  0  0  0  0  0  0  0
   27.2630   10.7348   20.4469 C   0  0  0  0  0  0  0  0  0  0  0  0
   28.1602   11.7106   20.0130 C   0  0  0  0  0  0  0  0  0  0  0  0
   27.8398   12.4779   19.3560 H   0  0  0  0  0  0  0  0  0  0  0  0
   29.4718   11.6637   20.4639 C   0  0  0  0  0  0  0  0  0  0  0  0
   30.4641   12.7145   20.0118 C   0  0  0  0  0  0  0  0  0  0  0  0
   31.4412   12.5052   20.4481 H   0  0  0  0  0  0  0  0  0  0  0  0
   30.1040   13.6883   20.3455 H   0  0  0  0  0  0  0  0  0  0  0  0
   30.5239   12.6816   18.9235 H   0  0  0  0  0  0  0  0  0  0  0  0
  1  2  2  0  0  0  0
  2  3  1  0  0  0  0
  2  7  1  0  0  0  0
  3  4  1  0  0  0  0
  3 14  1  0  0  0  0
  3 25  1  0  0  0  0
  4  5  1  0  0  0  0
  4  6  1  0  0  0  0
  6  7  1  0  0  0  0
  6  8  2  0  0  0  0
  7 10  1  0  0  0  0
  8  9  1  0  0  0  0
 10 11  1  0  0  0  0
 10 12  1  0  0  0  0
 10 13  1  0  0  0  0
 14 15  1  0  0  0  0
 14 23  2  0  0  0  0
 15 16  1  0  0  0  0
 15 17  2  0  0  0  0
 17 18  1  0  0  0  0
 17 19  1  0  0  0  0
 19 20  1  0  0  0  0
 19 21  2  0  0  0  0
 21 22  1  0  0  0  0
 21 23  1  0  0  0  0
 23 24  1  0  0  0  0
 25 26  1  0  0  0  0
 25 33  2  0  0  0  0
 26 27  1  0  0  0  0
 26 28  2  0  0  0  0
 28 29  1  0  0  0  0
 28 30  1  0  0  0  0
 30 31  1  0  0  0  0
 30 32  2  0  0  0  0
 32 33  1  0  0  0  0
 32 40  1  0  0  0  0
 33 34  1  0  0  0  0
 35 36  1  0  0  0  0
 35 37  1  0  0  0  0
 35 43  2  0  0  0  0
 37 38  2  0  0  0  0
 38 39  1  0  0  0  0
 38 40  1  0  0  0  0
 40 41  2  0  0  0  0
 41 42  1  0  0  0  0
 41 43  1  0  0  0  0
 43 44  1  0  0  0  0
 44 45  1  0  0  0  0
 44 46  1  0  0  0  0
 44 47  1  0  0  0  0
M  END
$$$$
bace1_merck_15_4n
  MOE2024           3D
bace1_merck_15_4n
 45 48  0  0  1  0  0  0  0  0999 V2000
   22.3600   13.0630   22.3480 O   0  0  0  0  0  0  0  0  0  0  0  0
   22.4950   11.8750   22.5810 C   0  0  0  0  0  0  0  0  0  0  0  0
   22.3390   10.6680   21.5610 C   0  0  3  0  0  0  0  0  0  0  0  0
   22.5380    9.4930   22.4640 N   0  0  0  0  0  0  0  0  0  0  0  0
   22.4950    8.5255   22.1772 H   0  0  0  0  0  0  0  0  0  0  0  0
   22.7800    9.9140   23.7010 C   0  0  0  0  0  0  0  0  0  0  0  0
   22.7860   11.3350   23.8120 N   0  0  0  0  0  0  0  0  0  0  0  0
   22.9970    9.1110   24.7490 N   0  0  0  0  0  0  0  0  0  0  0  0
   23.1735    9.5075   25.6610 H   0  0  0  0  0  0  0  0  0  0  0  0
   23.0220   12.1410   25.0180 C   0  0  0  0  0  0  0  0  0  0  0  0
   23.2318   11.4817   25.8603 H   0  0  0  0  0  0  0  0  0  0  0  0
   22.1361   12.7376   25.2354 H   0  0  0  0  0  0  0  0  0  0  0  0
   23.8732   12.8015   24.8528 H   0  0  0  0  0  0  0  0  0  0  0  0
   20.9020   10.6270   21.0050 C   0  0  0  0  0  0  0  0  0  0  0  0
   20.2720    9.4140   20.7470 C   0  0  0  0  0  0  0  0  0  0  0  0
   20.8009    8.4898   20.9270 H   0  0  0  0  0  0  0  0  0  0  0  0
   18.9690    9.3760   20.2600 C   0  0  0  0  0  0  0  0  0  0  0  0
   18.4952    8.4246   20.0683 H   0  0  0  0  0  0  0  0  0  0  0  0
   18.2800   10.5440   20.0210 C   0  0  0  0  0  0  0  0  0  0  0  0
   17.2665   10.5113   19.6494 H   0  0  0  0  0  0  0  0  0  0  0  0
   18.8920   11.7530   20.2590 C   0  0  0  0  0  0  0  0  0  0  0  0
   18.3582   12.6723   20.0684 H   0  0  0  0  0  0  0  0  0  0  0  0
   20.1950   11.7970   20.7440 C   0  0  0  0  0  0  0  0  0  0  0  0
   20.6649   12.7532   20.9206 H   0  0  0  0  0  0  0  0  0  0  0  0
   23.4880   10.6920   20.5300 C   0  0  0  0  0  0  0  0  0  0  0  0
   23.2110   10.7890   19.1730 C   0  0  0  0  0  0  0  0  0  0  0  0
   22.1843   10.8054   18.8382 H   0  0  0  0  0  0  0  0  0  0  0  0
   24.2350   10.8650   18.2430 C   0  0  0  0  0  0  0  0  0  0  0  0
   24.0024   10.9433   17.1913 H   0  0  0  0  0  0  0  0  0  0  0  0
   25.5500   10.8410   18.6560 C   0  0  0  0  0  0  0  0  0  0  0  0
   26.3407   10.8966   17.9224 H   0  0  0  0  0  0  0  0  0  0  0  0
   25.8710   10.7460   20.0070 C   0  0  0  0  0  0  0  0  0  0  0  0
   24.8260   10.6610   20.9430 C   0  0  0  0  0  0  0  0  0  0  0  0
   25.0576   10.5706   21.9940 H   0  0  0  0  0  0  0  0  0  0  0  0
   29.8541   10.6380   21.3371 C   0  0  0  0  0  0  0  0  0  0  0  0
   30.8518   10.5798   21.6965 H   0  0  0  0  0  0  0  0  0  0  0  0
   28.9917    9.7068   21.7456 N   0  0  0  0  0  0  0  0  0  0  0  0
   27.7296    9.7412   21.3187 C   0  0  0  0  0  0  0  0  0  0  0  0
   27.0699    8.9825   21.6588 H   0  0  0  0  0  0  0  0  0  0  0  0
   27.2631   10.7335   20.4466 C   0  0  0  0  0  0  0  0  0  0  0  0
   28.1603   11.7107   20.0151 C   0  0  0  0  0  0  0  0  0  0  0  0
   27.8397   12.4809   19.3597 H   0  0  0  0  0  0  0  0  0  0  0  0
   29.4764   11.6614   20.4669 C   0  0  0  0  0  0  0  0  0  0  0  0
   30.4428   12.6421   20.0548 C   0  0  0  0  0  0  0  0  0  0  0  0
   31.2130   13.4189   19.7286 N   0  0  0  0  0  0  0  0  0  0  0  0
  1  2  2  0  0  0  0
  2  3  1  0  0  0  0
  2  7  1  0  0  0  0
  3  4  1  0  0  0  0
  3 14  1  0  0  0  0
  3 25  1  0  0  0  0
  4  5  1  0  0  0  0
  4  6  1  0  0  0  0
  6  7  1  0  0  0  0
  6  8  2  0  0  0  0
  7 10  1  0  0  0  0
  8  9  1  0  0  0  0
 10 11  1  0  0  0  0
 10 12  1  0  0  0  0
 10 13  1  0  0  0  0
 14 15  1  0  0  0  0
 14 23  2  0  0  0  0
 15 16  1  0  0  0  0
 15 17  2  0  0  0  0
 17 18  1  0  0  0  0
 17 19  1  0  0  0  0
 19 20  1  0  0  0  0
 19 21  2  0  0  0  0
 21 22  1  0  0  0  0
 21 23  1  0  0  0  0
 23 24  1  0  0  0  0
 25 26  1  0  0  0  0
 25 33  2  0  0  0  0
 26 27  1  0  0  0  0
 26 28  2  0  0  0  0
 28 29  1  0  0  0  0
 28 30  1  0  0  0  0
 30 31  1  0  0  0  0
 30 32  2  0  0  0  0
 32 33  1  0  0  0  0
 32 40  1  0  0  0  0
 33 34  1  0  0  0  0
 35 36  1  0  0  0  0
 35 37  1  0  0  0  0
 35 43  2  0  0  0  0
 37 38  2  0  0  0  0
 38 39  1  0  0  0  0
 38 40  1  0  0  0  0
 40 41  2  0  0  0  0
 41 42  1  0  0  0  0
 41 43  1  0  0  0  0
 43 44  1  0  0  0  0
 44 45  3  0  0  0  0
M  END
$$$$
bace1_merck_16_4o
  MOE2024           3D
bace1_merck_16_4o
 44 47  0  0  1  0  0  0  0  0999 V2000
   22.3600   13.0630   22.3480 O   0  0  0  0  0  0  0  0  0  0  0  0
   22.4950   11.8750   22.5810 C   0  0  0  0  0  0  0  0  0  0  0  0
   22.3390   10.6680   21.5610 C   0  0  3  0  0  0  0  0  0  0  0  0
   22.5380    9.4930   22.4640 N   0  0  0  0  0  0  0  0  0  0  0  0
   22.4950    8.5255   22.1772 H   0  0  0  0  0  0  0  0  0  0  0  0
   22.7800    9.9140   23.7010 C   0  0  0  0  0  0  0  0  0  0  0  0
   22.7860   11.3350   23.8120 N   0  0  0  0  0  0  0  0  0  0  0  0
   22.9970    9.1110   24.7490 N   0  0  0  0  0  0  0  0  0  0  0  0
   23.1735    9.5075   25.6610 H   0  0  0  0  0  0  0  0  0  0  0  0
   23.0220   12.1410   25.0180 C   0  0  0  0  0  0  0  0  0  0  0  0
   23.2318   11.4817   25.8603 H   0  0  0  0  0  0  0  0  0  0  0  0
   22.1361   12.7376   25.2354 H   0  0  0  0  0  0  0  0  0  0  0  0
   23.8732   12.8015   24.8528 H   0  0  0  0  0  0  0  0  0  0  0  0
   20.9020   10.6270   21.0050 C   0  0  0  0  0  0  0  0  0  0  0  0
   20.2720    9.4140   20.7470 C   0  0  0  0  0  0  0  0  0  0  0  0
   20.8009    8.4898   20.9270 H   0  0  0  0  0  0  0  0  0  0  0  0
   18.9690    9.3760   20.2600 C   0  0  0  0  0  0  0  0  0  0  0  0
   18.4952    8.4246   20.0683 H   0  0  0  0  0  0  0  0  0  0  0  0
   18.2800   10.5440   20.0210 C   0  0  0  0  0  0  0  0  0  0  0  0
   17.2665   10.5113   19.6494 H   0  0  0  0  0  0  0  0  0  0  0  0
   18.8920   11.7530   20.2590 C   0  0  0  0  0  0  0  0  0  0  0  0
   18.3582   12.6723   20.0684 H   0  0  0  0  0  0  0  0  0  0  0  0
   20.1950   11.7970   20.7440 C   0  0  0  0  0  0  0  0  0  0  0  0
   20.6649   12.7532   20.9206 H   0  0  0  0  0  0  0  0  0  0  0  0
   23.4880   10.6920   20.5300 C   0  0  0  0  0  0  0  0  0  0  0  0
   23.2110   10.7890   19.1730 C   0  0  0  0  0  0  0  0  0  0  0  0
   22.1843   10.8054   18.8382 H   0  0  0  0  0  0  0  0  0  0  0  0
   24.2350   10.8650   18.2430 C   0  0  0  0  0  0  0  0  0  0  0  0
   24.0024   10.9433   17.1913 H   0  0  0  0  0  0  0  0  0  0  0  0
   25.5500   10.8410   18.6560 C   0  0  0  0  0  0  0  0  0  0  0  0
   26.3407   10.8966   17.9224 H   0  0  0  0  0  0  0  0  0  0  0  0
   25.8710   10.7460   20.0070 C   0  0  0  0  0  0  0  0  0  0  0  0
   24.8260   10.6610   20.9430 C   0  0  0  0  0  0  0  0  0  0  0  0
   25.0576   10.5706   21.9940 H   0  0  0  0  0  0  0  0  0  0  0  0
   29.8618   10.6034   21.3521 C   0  0  0  0  0  0  0  0  0  0  0  0
   30.8617   10.5558   21.7013 H   0  0  0  0  0  0  0  0  0  0  0  0
   28.9860    9.6817   21.7675 N   0  0  0  0  0  0  0  0  0  0  0  0
   27.7219    9.7341   21.3310 C   0  0  0  0  0  0  0  0  0  0  0  0
   27.0521    8.9860   21.6742 H   0  0  0  0  0  0  0  0  0  0  0  0
   27.2628   10.7267   20.4472 C   0  0  0  0  0  0  0  0  0  0  0  0
   28.1679   11.6934   20.0064 C   0  0  0  0  0  0  0  0  0  0  0  0
   27.8759   12.4674   19.3451 H   0  0  0  0  0  0  0  0  0  0  0  0
   29.4661   11.6078   20.4757 C   0  0  0  0  0  0  0  0  0  0  0  0
   30.3727   12.5292   20.0695 F   0  0  0  0  0  0  0  0  0  0  0  0
  1  2  2  0  0  0  0
  2  3  1  0  0  0  0
  2  7  1  0  0  0  0
  3  4  1  0  0  0  0
  3 14  1  0  0  0  0
  3 25  1  0  0  0  0
  4  5  1  0  0  0  0
  4  6  1  0  0  0  0
  6  7  1  0  0  0  0
  6  8  2  0  0  0  0
  7 10  1  0  0  0  0
  8  9  1  0  0  0  0
 10 11  1  0  0  0  0
 10 12  1  0  0  0  0
 10 13  1  0  0  0  0
 14 15  1  0  0  0  0
 14 23  2  0  0  0  0
 15 16  1  0  0  0  0
 15 17  2  0  0  0  0
 17 18  1  0  0  0  0
 17 19  1  0  0  0  0
 19 20  1  0  0  0  0
 19 21  2  0  0  0  0
 21 22  1  0  0  0  0
 21 23  1  0  0  0  0
 23 24  1  0  0  0  0
 25 26  1  0  0  0  0
 25 33  2  0  0  0  0
 26 27  1  0  0  0  0
 26 28  2  0  0  0  0
 28 29  1  0  0  0  0
 28 30  1  0  0  0  0
 30 31  1  0  0  0  0
 30 32  2  0  0  0  0
 32 33  1  0  0  0  0
 32 40  1  0  0  0  0
 33 34  1  0  0  0  0
 35 36  1  0  0  0  0
 35 37  1  0  0  0  0
 35 43  2  0  0  0  0
 37 38  2  0  0  0  0
 38 39  1  0  0  0  0
 38 40  1  0  0  0  0
 40 41  2  0  0  0  0
 41 42  1  0  0  0  0
 41 43  1  0  0  0  0
 43 44  1  0  0  0  0
M  END
$$$$
bace1_merck_17_4p
  MOE2024           3D
bace1_merck_17_4p
 44 47  0  0  1  0  0  0  0  0999 V2000
   22.3600   13.0630   22.3480 O   0  0  0  0  0  0  0  0  0  0  0  0
   22.4950   11.8750   22.5810 C   0  0  0  0  0  0  0  0  0  0  0  0
   22.3390   10.6680   21.5610 C   0  0  3  0  0  0  0  0  0  0  0  0
   22.5380    9.4930   22.4640 N   0  0  0  0  0  0  0  0  0  0  0  0
   22.4950    8.5255   22.1772 H   0  0  0  0  0  0  0  0  0  0  0  0
   22.7800    9.9140   23.7010 C   0  0  0  0  0  0  0  0  0  0  0  0
   22.7860   11.3350   23.8120 N   0  0  0  0  0  0  0  0  0  0  0  0
   22.9970    9.1110   24.7490 N   0  0  0  0  0  0  0  0  0  0  0  0
   23.1735    9.5075   25.6610 H   0  0  0  0  0  0  0  0  0  0  0  0
   23.0220   12.1410   25.0180 C   0  0  0  0  0  0  0  0  0  0  0  0
   23.2318   11.4817   25.8603 H   0  0  0  0  0  0  0  0  0  0  0  0
   22.1361   12.7376   25.2354 H   0  0  0  0  0  0  0  0  0  0  0  0
   23.8732   12.8015   24.8528 H   0  0  0  0  0  0  0  0  0  0  0  0
   20.9020   10.6270   21.0050 C   0  0  0  0  0  0  0  0  0  0  0  0
   20.2720    9.4140   20.7470 C   0  0  0  0  0  0  0  0  0  0  0  0
   20.8009    8.4898   20.9270 H   0  0  0  0  0  0  0  0  0  0  0  0
   18.9690    9.3760   20.2600 C   0  0  0  0  0  0  0  0  0  0  0  0
   18.4952    8.4246   20.0683 H   0  0  0  0  0  0  0  0  0  0  0  0
   18.2800   10.5440   20.0210 C   0  0  0  0  0  0  0  0  0  0  0  0
   17.2665   10.5113   19.6494 H   0  0  0  0  0  0  0  0  0  0  0  0
   18.8920   11.7530   20.2590 C   0  0  0  0  0  0  0  0  0  0  0  0
   18.3582   12.6723   20.0684 H   0  0  0  0  0  0  0  0  0  0  0  0
   20.1950   11.7970   20.7440 C   0  0  0  0  0  0  0  0  0  0  0  0
   20.6649   12.7532   20.9206 H   0  0  0  0  0  0  0  0  0  0  0  0
   23.4880   10.6920   20.5300 C   0  0  0  0  0  0  0  0  0  0  0  0
   23.2110   10.7890   19.1730 C   0  0  0  0  0  0  0  0  0  0  0  0
   22.1843   10.8054   18.8382 H   0  0  0  0  0  0  0  0  0  0  0  0
   24.2350   10.8650   18.2430 C   0  0  0  0  0  0  0  0  0  0  0  0
   24.0024   10.9433   17.1913 H   0  0  0  0  0  0  0  0  0  0  0  0
   25.5500   10.8410   18.6560 C   0  0  0  0  0  0  0  0  0  0  0  0
   26.3407   10.8966   17.9224 H   0  0  0  0  0  0  0  0  0  0  0  0
   25.8710   10.7460   20.0070 C   0  0  0  0  0  0  0  0  0  0  0  0
   24.8260   10.6610   20.9430 C   0  0  0  0  0  0  0  0  0  0  0  0
   25.0576   10.5706   21.9940 H   0  0  0  0  0  0  0  0  0  0  0  0
   29.8522   10.6024   21.3462 C   0  0  0  0  0  0  0  0  0  0  0  0
   30.8503   10.5480   21.6990 H   0  0  0  0  0  0  0  0  0  0  0  0
   28.9789    9.6817   21.7606 N   0  0  0  0  0  0  0  0  0  0  0  0
   27.7168    9.7313   21.3282 C   0  0  0  0  0  0  0  0  0  0  0  0
   27.0471    8.9833   21.6708 H   0  0  0  0  0  0  0  0  0  0  0  0
   27.2629   10.7248   20.4477 C   0  0  0  0  0  0  0  0  0  0  0  0
   28.1684   11.6902   20.0097 C   0  0  0  0  0  0  0  0  0  0  0  0
   27.8696   12.4630   19.3500 H   0  0  0  0  0  0  0  0  0  0  0  0
   29.4790   11.6229   20.4671 C   0  0  0  0  0  0  0  0  0  0  0  0
   30.6404   12.8003   19.9502 Cl  0  0  0  0  0  0  0  0  0  0  0  0
  1  2  2  0  0  0  0
  2  3  1  0  0  0  0
  2  7  1  0  0  0  0
  3  4  1  0  0  0  0
  3 14  1  0  0  0  0
  3 25  1  0  0  0  0
  4  5  1  0  0  0  0
  4  6  1  0  0  0  0
  6  7  1  0  0  0  0
  6  8  2  0  0  0  0
  7 10  1  0  0  0  0
  8  9  1  0  0  0  0
 10 11  1  0  0  0  0
 10 12  1  0  0  0  0
 10 13  1  0  0  0  0
 14 15  1  0  0  0  0
 14 23  2  0  0  0  0
 15 16  1  0  0  0  0
 15 17  2  0  0  0  0
 17 18  1  0  0  0  0
 17 19  1  0  0  0  0
 19 20  1  0  0  0  0
 19 21  2  0  0  0  0
 21 22  1  0  0  0  0
 21 23  1  0  0  0  0
 23 24  1  0  0  0  0
 25 26  1  0  0  0  0
 25 33  2  0  0  0  0
 26 27  1  0  0  0  0
 26 28  2  0  0  0  0
 28 29  1  0  0  0  0
 28 30  1  0  0  0  0
 30 31  1  0  0  0  0
 30 32  2  0  0  0  0
 32 33  1  0  0  0  0
 32 40  1  0  0  0  0
 33 34  1  0  0  0  0
 35 36  1  0  0  0  0
 35 37  1  0  0  0  0
 35 43  2  0  0  0  0
 37 38  2  0  0  0  0
 38 39  1  0  0  0  0
 38 40  1  0  0  0  0
 40 41  2  0  0  0  0
 41 42  1  0  0  0  0
 41 43  1  0  0  0  0
 43 44  1  0  0  0  0
M  END
$$$$
bace1_merck_18_6b
  MOE2024           3D
bace1_merck_18_6b
 49 52  0  0  1  0  0  0  0  0999 V2000
   22.7570   11.7990   22.4270 C   0  0  0  0  0  0  0  0  0  0  0  0
   22.6810    9.4210   22.3170 N   0  0  0  0  0  0  0  0  0  0  0  0
   23.4132    8.7759   22.0053 H   0  0  0  0  0  0  0  0  0  0  0  0
   22.8440   12.9770   22.1420 O   0  0  0  0  0  0  0  0  0  0  0  0
   22.5140   10.6120   21.4190 C   0  0  3  0  0  0  0  0  0  0  0  0
   22.9280   11.2580   23.6800 N   0  0  0  0  0  0  0  0  0  0  0  0
   17.0062   12.3656   25.5045 O   0  0  0  0  0  0  0  0  0  0  0  0
   22.8380    9.8400   23.5830 C   0  0  0  0  0  0  0  0  0  0  0  0
   22.9660    9.0450   24.6440 N   0  0  0  0  0  0  0  0  0  0  0  0
   22.8669    8.0906   24.3683 H   0  0  0  0  0  0  0  0  0  0  0  0
   23.1650   12.0560   24.8900 C   0  0  0  0  0  0  0  0  0  0  0  0
   23.2663   11.3924   25.7488 H   0  0  0  0  0  0  0  0  0  0  0  0
   22.3248   12.7317   25.0500 H   0  0  0  0  0  0  0  0  0  0  0  0
   24.0798   12.6361   24.7692 H   0  0  0  0  0  0  0  0  0  0  0  0
   23.5905   10.6234   20.3156 C   0  0  0  0  0  0  0  0  0  0  0  0
   24.2568   11.8012   19.9898 C   0  0  0  0  0  0  0  0  0  0  0  0
   24.0073   12.7156   20.5076 H   0  0  0  0  0  0  0  0  0  0  0  0
   25.2421   11.8155   19.0035 C   0  0  0  0  0  0  0  0  0  0  0  0
   25.7461   12.7394   18.7608 H   0  0  0  0  0  0  0  0  0  0  0  0
   25.5753   10.6592   18.3381 C   0  0  0  0  0  0  0  0  0  0  0  0
   26.3445   10.6718   17.5801 H   0  0  0  0  0  0  0  0  0  0  0  0
   24.9210    9.4805   18.6442 C   0  0  0  0  0  0  0  0  0  0  0  0
   25.1804    8.5705   18.1237 H   0  0  0  0  0  0  0  0  0  0  0  0
   23.9283    9.4618   19.6215 C   0  0  0  0  0  0  0  0  0  0  0  0
   23.4149    8.5380   19.8440 H   0  0  0  0  0  0  0  0  0  0  0  0
   21.0647   10.6128   20.8990 C   0  0  0  0  0  0  0  0  0  0  0  0
   20.7804   10.4193   19.5491 C   0  0  0  0  0  0  0  0  0  0  0  0
   21.5886   10.3784   18.8339 H   0  0  0  0  0  0  0  0  0  0  0  0
   19.4717   10.2787   19.1131 C   0  0  0  0  0  0  0  0  0  0  0  0
   19.2663   10.1178   18.0651 H   0  0  0  0  0  0  0  0  0  0  0  0
   18.4296   10.3442   20.0195 C   0  0  0  0  0  0  0  0  0  0  0  0
   17.4130   10.2202   19.6768 H   0  0  0  0  0  0  0  0  0  0  0  0
   18.6815   10.5698   21.3764 C   0  0  0  0  0  0  0  0  0  0  0  0
   20.0070   10.7097   21.8035 C   0  0  0  0  0  0  0  0  0  0  0  0
   20.2138   10.8952   22.8472 H   0  0  0  0  0  0  0  0  0  0  0  0
   15.6956   10.5658   24.4559 C   0  0  0  0  0  0  0  0  0  0  0  0
   14.9926   10.5110   25.2739 H   0  0  0  0  0  0  0  0  0  0  0  0
   17.6682   11.5240   23.4503 C   0  0  0  0  0  0  0  0  0  0  0  0
   18.4701   12.2468   23.4828 H   0  0  0  0  0  0  0  0  0  0  0  0
   17.5735   10.6501   22.3661 C   0  0  0  0  0  0  0  0  0  0  0  0
   16.4914    9.7685   22.3225 C   0  0  0  0  0  0  0  0  0  0  0  0
   16.3733    9.1105   21.4742 H   0  0  0  0  0  0  0  0  0  0  0  0
   15.5636    9.7272   23.3581 C   0  0  0  0  0  0  0  0  0  0  0  0
   14.7342    9.0374   23.3073 H   0  0  0  0  0  0  0  0  0  0  0  0
   16.7451   11.4775   24.4888 C   0  0  0  0  0  0  0  0  0  0  0  0
   16.2230   12.2641   26.7037 C   0  0  0  0  0  0  0  0  0  0  0  0
   16.5426   13.0283   27.4121 H   0  0  0  0  0  0  0  0  0  0  0  0
   16.3620   11.2777   27.1462 H   0  0  0  0  0  0  0  0  0  0  0  0
   15.1698   12.4093   26.4632 H   0  0  0  0  0  0  0  0  0  0  0  0
  1  4  2  0  0  0  0
  1  5  1  0  0  0  0
  1  6  1  0  0  0  0
  2  3  1  0  0  0  0
  2  5  1  0  0  0  0
  2  8  1  0  0  0  0
  5 15  1  0  0  0  0
  5 26  1  0  0  0  0
  6  8  1  0  0  0  0
  6 11  1  0  0  0  0
  7 45  1  0  0  0  0
  7 46  1  0  0  0  0
  8  9  2  0  0  0  0
  9 10  1  0  0  0  0
 11 12  1  0  0  0  0
 11 13  1  0  0  0  0
 11 14  1  0  0  0  0
 15 16  1  0  0  0  0
 15 24  2  0  0  0  0
 16 17  1  0  0  0  0
 16 18  2  0  0  0  0
 18 19  1  0  0  0  0
 18 20  1  0  0  0  0
 20 21  1  0  0  0  0
 20 22  2  0  0  0  0
 22 23  1  0  0  0  0
 22 24  1  0  0  0  0
 24 25  1  0  0  0  0
 26 27  1  0  0  0  0
 26 34  2  0  0  0  0
 27 28  1  0  0  0  0
 27 29  2  0  0  0  0
 29 30  1  0  0  0  0
 29 31  1  0  0  0  0
 31 32  1  0  0  0  0
 31 33  2  0  0  0  0
 33 34  1  0  0  0  0
 33 40  1  0  0  0  0
 34 35  1  0  0  0  0
 36 37  1  0  0  0  0
 36 43  2  0  0  0  0
 36 45  1  0  0  0  0
 38 39  1  0  0  0  0
 38 40  1  0  0  0  0
 38 45  2  0  0  0  0
 40 41  2  0  0  0  0
 41 42  1  0  0  0  0
 41 43  1  0  0  0  0
 43 44  1  0  0  0  0
 46 47  1  0  0  0  0
 46 48  1  0  0  0  0
 46 49  1  0  0  0  0
M  END
$$$$
bace1_merck_19_7b
  MOE2024           3D
bace1_merck_19_7b
 44 47  0  0  1  0  0  0  0  0999 V2000
   22.3600   13.0630   22.3480 O   0  0  0  0  0  0  0  0  0  0  0  0
   22.4950   11.8750   22.5810 C   0  0  0  0  0  0  0  0  0  0  0  0
   22.3390   10.6680   21.5610 C   0  0  3  0  0  0  0  0  0  0  0  0
   22.5380    9.4930   22.4640 N   0  0  0  0  0  0  0  0  0  0  0  0
   22.4950    8.5255   22.1772 H   0  0  0  0  0  0  0  0  0  0  0  0
   22.7800    9.9140   23.7010 C   0  0  0  0  0  0  0  0  0  0  0  0
   22.7860   11.3350   23.8120 N   0  0  0  0  0  0  0  0  0  0  0  0
   22.9970    9.1110   24.7490 N   0  0  0  0  0  0  0  0  0  0  0  0
   23.1735    9.5075   25.6610 H   0  0  0  0  0  0  0  0  0  0  0  0
   23.0220   12.1410   25.0180 C   0  0  0  0  0  0  0  0  0  0  0  0
   23.2318   11.4817   25.8603 H   0  0  0  0  0  0  0  0  0  0  0  0
   22.1361   12.7376   25.2354 H   0  0  0  0  0  0  0  0  0  0  0  0
   23.8732   12.8015   24.8528 H   0  0  0  0  0  0  0  0  0  0  0  0
   23.4812   10.7418   20.5286 C   0  0  0  0  0  0  0  0  0  0  0  0
   23.9857   11.9688   20.1105 C   0  0  0  0  0  0  0  0  0  0  0  0
   23.5634   12.8811   20.5049 H   0  0  0  0  0  0  0  0  0  0  0  0
   25.0275   12.0359   19.1904 C   0  0  0  0  0  0  0  0  0  0  0  0
   25.4080   12.9976   18.8796 H   0  0  0  0  0  0  0  0  0  0  0  0
   25.5762   10.8835   18.6737 C   0  0  0  0  0  0  0  0  0  0  0  0
   26.3892   10.9385   17.9649 H   0  0  0  0  0  0  0  0  0  0  0  0
   25.0814    9.6614   19.0669 C   0  0  0  0  0  0  0  0  0  0  0  0
   25.5044    8.7544   18.6610 H   0  0  0  0  0  0  0  0  0  0  0  0
   24.0388    9.5884   19.9849 C   0  0  0  0  0  0  0  0  0  0  0  0
   23.6564    8.6225   20.2800 H   0  0  0  0  0  0  0  0  0  0  0  0
   20.8965   10.6767   21.0107 C   0  0  0  0  0  0  0  0  0  0  0  0
   20.6675   10.6360   19.6420 C   0  0  0  0  0  0  0  0  0  0  0  0
   21.5056   10.6406   18.9608 H   0  0  0  0  0  0  0  0  0  0  0  0
   19.3775   10.5896   19.1390 C   0  0  0  0  0  0  0  0  0  0  0  0
   19.2168   10.5551   18.0716 H   0  0  0  0  0  0  0  0  0  0  0  0
   18.2984   10.5873   19.9968 C   0  0  0  0  0  0  0  0  0  0  0  0
   17.2968   10.5552   19.5941 H   0  0  0  0  0  0  0  0  0  0  0  0
   18.4841   10.6259   21.3757 C   0  0  0  0  0  0  0  0  0  0  0  0
   19.7960   10.6812   21.8771 C   0  0  0  0  0  0  0  0  0  0  0  0
   19.9575   10.7279   22.9439 H   0  0  0  0  0  0  0  0  0  0  0  0
   15.2831   10.3719   24.1445 C   0  0  0  0  0  0  0  0  0  0  0  0
   14.4832   10.3000   24.8664 H   0  0  0  0  0  0  0  0  0  0  0  0
   16.0633   11.4561   24.1674 N   0  0  0  0  0  0  0  0  0  0  0  0
   17.0441   11.5283   23.2560 C   0  0  0  0  0  0  0  0  0  0  0  0
   17.6660   12.4113   23.2539 H   0  0  0  0  0  0  0  0  0  0  0  0
   17.3142   10.5421   22.3132 C   0  0  0  0  0  0  0  0  0  0  0  0
   16.4778    9.4289   22.3246 C   0  0  0  0  0  0  0  0  0  0  0  0
   16.6330    8.6318   21.6126 H   0  0  0  0  0  0  0  0  0  0  0  0
   15.4483    9.3407   23.2455 C   0  0  0  0  0  0  0  0  0  0  0  0
   14.7903    8.4844   23.2590 H   0  0  0  0  0  0  0  0  0  0  0  0
  1  2  2  0  0  0  0
  2  3  1  0  0  0  0
  2  7  1  0  0  0  0
  3  4  1  0  0  0  0
  3 14  1  0  0  0  0
  3 25  1  0  0  0  0
  4  5  1  0  0  0  0
  4  6  1  0  0  0  0
  6  7  1  0  0  0  0
  6  8  2  0  0  0  0
  7 10  1  0  0  0  0
  8  9  1  0  0  0  0
 10 11  1  0  0  0  0
 10 12  1  0  0  0  0
 10 13  1  0  0  0  0
 14 15  1  0  0  0  0
 14 23  2  0  0  0  0
 15 16  1  0  0  0  0
 15 17  2  0  0  0  0
 17 18  1  0  0  0  0
 17 19  1  0  0  0  0
 19 20  1  0  0  0  0
 19 21  2  0  0  0  0
 21 22  1  0  0  0  0
 21 23  1  0  0  0  0
 23 24  1  0  0  0  0
 25 26  1  0  0  0  0
 25 33  2  0  0  0  0
 26 27  1  0  0  0  0
 26 28  2  0  0  0  0
 28 29  1  0  0  0  0
 28 30  1  0  0  0  0
 30 31  1  0  0  0  0
 30 32  2  0  0  0  0
 32 33  1  0  0  0  0
 32 40  1  0  0  0  0
 33 34  1  0  0  0  0
 35 36  1  0  0  0  0
 35 37  1  0  0  0  0
 35 43  2  0  0  0  0
 37 38  2  0  0  0  0
 38 39  1  0  0  0  0
 38 40  1  0  0  0  0
 40 41  2  0  0  0  0
 41 42  1  0  0  0  0
 41 43  1  0  0  0  0
 43 44  1  0  0  0  0
M  END
$$$$
bace1_merck_20_13a
  MOE2024           3D
bace1_merck_20_13a
 38 40  0  0  1  0  0  0  0  0999 V2000
   22.7570   11.7990   22.4270 C   0  0  0  0  0  0  0  0  0  0  0  0
   22.6810    9.4210   22.3170 N   0  0  0  0  0  0  0  0  0  0  0  0
   23.4132    8.7759   22.0053 H   0  0  0  0  0  0  0  0  0  0  0  0
   22.8440   12.9770   22.1420 O   0  0  0  0  0  0  0  0  0  0  0  0
   22.5140   10.6120   21.4190 C   0  0  3  0  0  0  0  0  0  0  0  0
   21.0709   10.6064   20.8857 C   0  0  0  0  0  0  0  0  0  0  0  0
   20.3951   10.5108   21.7358 H   0  0  0  0  0  0  0  0  0  0  0  0
   20.9534    9.7553   20.2158 H   0  0  0  0  0  0  0  0  0  0  0  0
   20.8855   11.5495   20.3720 H   0  0  0  0  0  0  0  0  0  0  0  0
   22.9280   11.2580   23.6800 N   0  0  0  0  0  0  0  0  0  0  0  0
   22.8380    9.8400   23.5830 C   0  0  0  0  0  0  0  0  0  0  0  0
   22.9660    9.0450   24.6440 N   0  0  0  0  0  0  0  0  0  0  0  0
   22.8669    8.0906   24.3683 H   0  0  0  0  0  0  0  0  0  0  0  0
   23.1650   12.0560   24.8900 C   0  0  0  0  0  0  0  0  0  0  0  0
   23.2663   11.3924   25.7488 H   0  0  0  0  0  0  0  0  0  0  0  0
   22.3248   12.7317   25.0500 H   0  0  0  0  0  0  0  0  0  0  0  0
   24.0798   12.6361   24.7692 H   0  0  0  0  0  0  0  0  0  0  0  0
   23.6230   10.6630   20.3520 C   0  0  0  0  0  0  0  0  0  0  0  0
   23.3320   10.9440   19.0190 C   0  0  0  0  0  0  0  0  0  0  0  0
   22.3320   11.0501   18.6871 H   0  0  0  0  0  0  0  0  0  0  0  0
   24.3490   11.1290   18.0950 C   0  0  0  0  0  0  0  0  0  0  0  0
   24.1142   11.3577   17.0864 H   0  0  0  0  0  0  0  0  0  0  0  0
   25.6700   11.0210   18.4890 C   0  0  0  0  0  0  0  0  0  0  0  0
   26.4446   11.1651   17.7801 H   0  0  0  0  0  0  0  0  0  0  0  0
   25.9930   10.7080   19.8130 C   0  0  0  0  0  0  0  0  0  0  0  0
   24.9570   10.5240   20.7360 C   0  0  0  0  0  0  0  0  0  0  0  0
   25.2059   10.3192   21.7464 H   0  0  0  0  0  0  0  0  0  0  0  0
   30.0681   10.3319   21.0083 C   0  0  0  0  0  0  0  0  0  0  0  0
   31.0792   10.2295   21.3075 H   0  0  0  0  0  0  0  0  0  0  0  0
   27.8315    9.4213   20.8740 C   0  0  0  0  0  0  0  0  0  0  0  0
   27.1593    8.6269   21.0675 H   0  0  0  0  0  0  0  0  0  0  0  0
   27.3873   10.5774   20.2257 C   0  0  0  0  0  0  0  0  0  0  0  0
   28.3020   11.6088   19.9760 C   0  0  0  0  0  0  0  0  0  0  0  0
   27.9744   12.4928   19.4911 H   0  0  0  0  0  0  0  0  0  0  0  0
   29.6331   11.4852   20.3644 C   0  0  0  0  0  0  0  0  0  0  0  0
   30.3155   12.2734   20.1699 H   0  0  0  0  0  0  0  0  0  0  0  0
   29.1642    9.3003   21.2632 C   0  0  0  0  0  0  0  0  0  0  0  0
   29.7013    7.8616   22.0654 Cl  0  0  0  0  0  0  0  0  0  0  0  0
  1  4  2  0  0  0  0
  1  5  1  0  0  0  0
  1 10  1  0  0  0  0
  2  3  1  0  0  0  0
  2  5  1  0  0  0  0
  2 11  1  0  0  0  0
  5  6  1  0  0  0  0
  5 18  1  0  0  0  0
  6  7  1  0  0  0  0
  6  8  1  0  0  0  0
  6  9  1  0  0  0  0
 10 11  1  0  0  0  0
 10 14  1  0  0  0  0
 11 12  2  0  0  0  0
 12 13  1  0  0  0  0
 14 15  1  0  0  0  0
 14 16  1  0  0  0  0
 14 17  1  0  0  0  0
 18 19  1  0  0  0  0
 18 26  2  0  0  0  0
 19 20  1  0  0  0  0
 19 21  2  0  0  0  0
 21 22  1  0  0  0  0
 21 23  1  0  0  0  0
 23 24  1  0  0  0  0
 23 25  2  0  0  0  0
 25 26  1  0  0  0  0
 25 32  1  0  0  0  0
 26 27  1  0  0  0  0
 28 29  1  0  0  0  0
 28 35  2  0  0  0  0
 28 37  1  0  0  0  0
 30 31  1  0  0  0  0
 30 32  1  0  0  0  0
 30 37  2  0  0  0  0
 32 33  2  0  0  0  0
 33 34  1  0  0  0  0
 33 35  1  0  0  0  0
 35 36  1  0  0  0  0
 37 38  1  0  0  0  0
M  END
$$$$
bace1_merck_21_13b
  MOE2024           3D
bace1_merck_21_13b
 41 43  0  0  1  0  0  0  0  0999 V2000
   22.7570   11.7990   22.4270 C   0  0  0  0  0  0  0  0  0  0  0  0
   22.6810    9.4210   22.3170 N   0  0  0  0  0  0  0  0  0  0  0  0
   23.4132    8.7759   22.0053 H   0  0  0  0  0  0  0  0  0  0  0  0
   22.8440   12.9770   22.1420 O   0  0  0  0  0  0  0  0  0  0  0  0
   22.5140   10.6120   21.4190 C   0  0  3  0  0  0  0  0  0  0  0  0
   21.0432   10.5476   20.8946 C   0  0  0  0  0  0  0  0  0  0  0  0
   20.4037   10.1550   21.6871 H   0  0  0  0  0  0  0  0  0  0  0  0
   20.9871    9.8518   20.0577 H   0  0  0  0  0  0  0  0  0  0  0  0
   20.4850   11.9320   20.4930 C   0  0  0  0  0  0  0  0  0  0  0  0
   19.5415   11.8024   19.9609 H   0  0  0  0  0  0  0  0  0  0  0  0
   21.1771   12.4825   19.8556 H   0  0  0  0  0  0  0  0  0  0  0  0
   20.2897   12.5311   21.3841 H   0  0  0  0  0  0  0  0  0  0  0  0
   22.9280   11.2580   23.6800 N   0  0  0  0  0  0  0  0  0  0  0  0
   22.8380    9.8400   23.5830 C   0  0  0  0  0  0  0  0  0  0  0  0
   22.9660    9.0450   24.6440 N   0  0  0  0  0  0  0  0  0  0  0  0
   22.8669    8.0906   24.3683 H   0  0  0  0  0  0  0  0  0  0  0  0
   23.1650   12.0560   24.8900 C   0  0  0  0  0  0  0  0  0  0  0  0
   23.2663   11.3924   25.7488 H   0  0  0  0  0  0  0  0  0  0  0  0
   22.3248   12.7317   25.0500 H   0  0  0  0  0  0  0  0  0  0  0  0
   24.0798   12.6361   24.7692 H   0  0  0  0  0  0  0  0  0  0  0  0
   23.6230   10.6630   20.3520 C   0  0  0  0  0  0  0  0  0  0  0  0
   23.3320   10.9440   19.0190 C   0  0  0  0  0  0  0  0  0  0  0  0
   22.3346   11.0389   18.6804 H   0  0  0  0  0  0  0  0  0  0  0  0
   24.3490   11.1290   18.0950 C   0  0  0  0  0  0  0  0  0  0  0  0
   24.1141   11.3559   17.0860 H   0  0  0  0  0  0  0  0  0  0  0  0
   25.6700   11.0210   18.4890 C   0  0  0  0  0  0  0  0  0  0  0  0
   26.4447   11.1651   17.7802 H   0  0  0  0  0  0  0  0  0  0  0  0
   25.9930   10.7080   19.8130 C   0  0  0  0  0  0  0  0  0  0  0  0
   24.9570   10.5240   20.7360 C   0  0  0  0  0  0  0  0  0  0  0  0
   25.2059   10.3194   21.7464 H   0  0  0  0  0  0  0  0  0  0  0  0
   30.0634   10.3347   21.0228 C   0  0  0  0  0  0  0  0  0  0  0  0
   31.0730   10.2336   21.3270 H   0  0  0  0  0  0  0  0  0  0  0  0
   27.8314    9.4165   20.8669 C   0  0  0  0  0  0  0  0  0  0  0  0
   27.1609    8.6182   21.0493 H   0  0  0  0  0  0  0  0  0  0  0  0
   27.3862   10.5776   20.2282 C   0  0  0  0  0  0  0  0  0  0  0  0
   28.2980   11.6146   19.9932 C   0  0  0  0  0  0  0  0  0  0  0  0
   27.9693   12.5021   19.5153 H   0  0  0  0  0  0  0  0  0  0  0  0
   29.6272   11.4928   20.3882 C   0  0  0  0  0  0  0  0  0  0  0  0
   30.3073   12.2859   20.2058 H   0  0  0  0  0  0  0  0  0  0  0  0
   29.1624    9.2964   21.2616 C   0  0  0  0  0  0  0  0  0  0  0  0
   29.7012    7.8509   22.0506 Cl  0  0  0  0  0  0  0  0  0  0  0  0
  1  4  2  0  0  0  0
  1  5  1  0  0  0  0
  1 13  1  0  0  0  0
  2  3  1  0  0  0  0
  2  5  1  0  0  0  0
  2 14  1  0  0  0  0
  5  6  1  0  0  0  0
  5 21  1  0  0  0  0
  6  7  1  0  0  0  0
  6  8  1  0  0  0  0
  6  9  1  0  0  0  0
  9 10  1  0  0  0  0
  9 11  1  0  0  0  0
  9 12  1  0  0  0  0
 13 14  1  0  0  0  0
 13 17  1  0  0  0  0
 14 15  2  0  0  0  0
 15 16  1  0  0  0  0
 17 18  1  0  0  0  0
 17 19  1  0  0  0  0
 17 20  1  0  0  0  0
 21 22  1  0  0  0  0
 21 29  2  0  0  0  0
 22 23  1  0  0  0  0
 22 24  2  0  0  0  0
 24 25  1  0  0  0  0
 24 26  1  0  0  0  0
 26 27  1  0  0  0  0
 26 28  2  0  0  0  0
 28 29  1  0  0  0  0
 28 35  1  0  0  0  0
 29 30  1  0  0  0  0
 31 32  1  0  0  0  0
 31 38  2  0  0  0  0
 31 40  1  0  0  0  0
 33 34  1  0  0  0  0
 33 35  1  0  0  0  0
 33 40  2  0  0  0  0
 35 36  2  0  0  0  0
 36 37  1  0  0  0  0
 36 38  1  0  0  0  0
 38 39  1  0  0  0  0
 40 41  1  0  0  0  0
M  END
$$$$
bace1_merck_22_13c
  MOE2024           3D
bace1_merck_22_13c
 44 46  0  0  1  0  0  0  0  0999 V2000
   22.7570   11.7990   22.4270 C   0  0  0  0  0  0  0  0  0  0  0  0
   22.6810    9.4210   22.3170 N   0  0  0  0  0  0  0  0  0  0  0  0
   23.4132    8.7759   22.0053 H   0  0  0  0  0  0  0  0  0  0  0  0
   22.8440   12.9770   22.1420 O   0  0  0  0  0  0  0  0  0  0  0  0
   22.5140   10.6120   21.4190 C   0  0  3  0  0  0  0  0  0  0  0  0
   21.0233   10.6169   20.8564 C   0  0  0  0  0  0  0  0  0  0  0  0
   19.9792   10.1404   21.8969 C   0  0  0  0  0  0  0  0  0  0  0  0
   18.9724   10.2361   21.4873 H   0  0  0  0  0  0  0  0  0  0  0  0
   20.0443   10.7331   22.8109 H   0  0  0  0  0  0  0  0  0  0  0  0
   20.1346    9.0888   22.1427 H   0  0  0  0  0  0  0  0  0  0  0  0
   20.9506    9.9352   20.0083 H   0  0  0  0  0  0  0  0  0  0  0  0
   20.5475   12.0254   20.4167 C   0  0  0  0  0  0  0  0  0  0  0  0
   19.6355   11.9384   19.8244 H   0  0  0  0  0  0  0  0  0  0  0  0
   21.2989   12.5444   19.8232 H   0  0  0  0  0  0  0  0  0  0  0  0
   20.3301   12.6475   21.2872 H   0  0  0  0  0  0  0  0  0  0  0  0
   22.9280   11.2580   23.6800 N   0  0  0  0  0  0  0  0  0  0  0  0
   22.8380    9.8400   23.5830 C   0  0  0  0  0  0  0  0  0  0  0  0
   22.9660    9.0450   24.6440 N   0  0  0  0  0  0  0  0  0  0  0  0
   22.8669    8.0906   24.3683 H   0  0  0  0  0  0  0  0  0  0  0  0
   23.1650   12.0560   24.8900 C   0  0  0  0  0  0  0  0  0  0  0  0
   23.2663   11.3924   25.7488 H   0  0  0  0  0  0  0  0  0  0  0  0
   22.3248   12.7317   25.0500 H   0  0  0  0  0  0  0  0  0  0  0  0
   24.0798   12.6361   24.7692 H   0  0  0  0  0  0  0  0  0  0  0  0
   23.6230   10.6630   20.3520 C   0  0  0  0  0  0  0  0  0  0  0  0
   23.3320   10.9440   19.0190 C   0  0  0  0  0  0  0  0  0  0  0  0
   22.3373   11.0344   18.6732 H   0  0  0  0  0  0  0  0  0  0  0  0
   24.3490   11.1290   18.0950 C   0  0  0  0  0  0  0  0  0  0  0  0
   24.1142   11.3550   17.0858 H   0  0  0  0  0  0  0  0  0  0  0  0
   25.6700   11.0210   18.4890 C   0  0  0  0  0  0  0  0  0  0  0  0
   26.4447   11.1649   17.7803 H   0  0  0  0  0  0  0  0  0  0  0  0
   25.9930   10.7080   19.8130 C   0  0  0  0  0  0  0  0  0  0  0  0
   24.9570   10.5240   20.7360 C   0  0  0  0  0  0  0  0  0  0  0  0
   25.2059   10.3195   21.7464 H   0  0  0  0  0  0  0  0  0  0  0  0
   30.0638   10.3409   21.0233 C   0  0  0  0  0  0  0  0  0  0  0  0
   31.0736   10.2416   21.3277 H   0  0  0  0  0  0  0  0  0  0  0  0
   27.8336    9.4183   20.8658 C   0  0  0  0  0  0  0  0  0  0  0  0
   27.1646    8.6182   21.0471 H   0  0  0  0  0  0  0  0  0  0  0  0
   27.3864   10.5792   20.2282 C   0  0  0  0  0  0  0  0  0  0  0  0
   28.2961   11.6185   19.9948 C   0  0  0  0  0  0  0  0  0  0  0  0
   27.9654   12.5061   19.5186 H   0  0  0  0  0  0  0  0  0  0  0  0
   29.6256   11.4987   20.3894 C   0  0  0  0  0  0  0  0  0  0  0  0
   30.3044   12.2931   20.2076 H   0  0  0  0  0  0  0  0  0  0  0  0
   29.1647    9.3008   21.2612 C   0  0  0  0  0  0  0  0  0  0  0  0
   29.7058    7.8563   22.0504 Cl  0  0  0  0  0  0  0  0  0  0  0  0
  1  4  2  0  0  0  0
  1  5  1  0  0  0  0
  1 16  1  0  0  0  0
  2  3  1  0  0  0  0
  2  5  1  0  0  0  0
  2 17  1  0  0  0  0
  5  6  1  0  0  0  0
  5 24  1  0  0  0  0
  6  7  1  0  0  0  0
  6 11  1  0  0  0  0
  6 12  1  0  0  0  0
  7  8  1  0  0  0  0
  7  9  1  0  0  0  0
  7 10  1  0  0  0  0
 12 13  1  0  0  0  0
 12 14  1  0  0  0  0
 12 15  1  0  0  0  0
 16 17  1  0  0  0  0
 16 20  1  0  0  0  0
 17 18  2  0  0  0  0
 18 19  1  0  0  0  0
 20 21  1  0  0  0  0
 20 22  1  0  0  0  0
 20 23  1  0  0  0  0
 24 25  1  0  0  0  0
 24 32  2  0  0  0  0
 25 26  1  0  0  0  0
 25 27  2  0  0  0  0
 27 28  1  0  0  0  0
 27 29  1  0  0  0  0
 29 30  1  0  0  0  0
 29 31  2  0  0  0  0
 31 32  1  0  0  0  0
 31 38  1  0  0  0  0
 32 33  1  0  0  0  0
 34 35  1  0  0  0  0
 34 41  2  0  0  0  0
 34 43  1  0  0  0  0
 36 37  1  0  0  0  0
 36 38  1  0  0  0  0
 36 43  2  0  0  0  0
 38 39  2  0  0  0  0
 39 40  1  0  0  0  0
 39 41  1  0  0  0  0
 41 42  1  0  0  0  0
 43 44  1  0  0  0  0
M  END
$$$$
bace1_merck_23_13d
  MOE2024           3D
bace1_merck_23_13d
 42 45  0  0  1  0  0  0  0  0999 V2000
   22.7570   11.7990   22.4270 C   0  0  0  0  0  0  0  0  0  0  0  0
   22.6810    9.4210   22.3170 N   0  0  0  0  0  0  0  0  0  0  0  0
   23.4132    8.7759   22.0053 H   0  0  0  0  0  0  0  0  0  0  0  0
   22.8440   12.9770   22.1420 O   0  0  0  0  0  0  0  0  0  0  0  0
   22.5140   10.6120   21.4190 C   0  0  3  0  0  0  0  0  0  0  0  0
   21.0707   10.5039   20.8266 C   0  0  0  0  0  0  0  0  0  0  0  0
   19.9127   10.9358   21.6869 C   0  0  0  0  0  0  0  0  0  0  0  0
   20.1221   11.3656   22.6581 H   0  0  0  0  0  0  0  0  0  0  0  0
   19.0047   10.3537   21.5944 H   0  0  0  0  0  0  0  0  0  0  0  0
   20.9236    9.6328   20.2026 H   0  0  0  0  0  0  0  0  0  0  0  0
   20.3127   11.7583   20.4813 C   0  0  0  0  0  0  0  0  0  0  0  0
   19.6524   11.7031   19.6254 H   0  0  0  0  0  0  0  0  0  0  0  0
   20.7803   12.7145   20.6782 H   0  0  0  0  0  0  0  0  0  0  0  0
   22.9280   11.2580   23.6800 N   0  0  0  0  0  0  0  0  0  0  0  0
   22.8380    9.8400   23.5830 C   0  0  0  0  0  0  0  0  0  0  0  0
   22.9660    9.0450   24.6440 N   0  0  0  0  0  0  0  0  0  0  0  0
   22.8669    8.0906   24.3683 H   0  0  0  0  0  0  0  0  0  0  0  0
   23.1650   12.0560   24.8900 C   0  0  0  0  0  0  0  0  0  0  0  0
   23.2663   11.3924   25.7488 H   0  0  0  0  0  0  0  0  0  0  0  0
   22.3248   12.7317   25.0500 H   0  0  0  0  0  0  0  0  0  0  0  0
   24.0798   12.6361   24.7692 H   0  0  0  0  0  0  0  0  0  0  0  0
   23.6230   10.6630   20.3520 C   0  0  0  0  0  0  0  0  0  0  0  0
   23.3320   10.9440   19.0190 C   0  0  0  0  0  0  0  0  0  0  0  0
   22.3313   11.0539   18.6892 H   0  0  0  0  0  0  0  0  0  0  0  0
   24.3490   11.1290   18.0950 C   0  0  0  0  0  0  0  0  0  0  0  0
   24.1139   11.3586   17.0867 H   0  0  0  0  0  0  0  0  0  0  0  0
   25.6700   11.0210   18.4890 C   0  0  0  0  0  0  0  0  0  0  0  0
   26.4447   11.1660   17.7804 H   0  0  0  0  0  0  0  0  0  0  0  0
   25.9930   10.7080   19.8130 C   0  0  0  0  0  0  0  0  0  0  0  0
   24.9570   10.5240   20.7360 C   0  0  0  0  0  0  0  0  0  0  0  0
   25.2069   10.3192   21.7462 H   0  0  0  0  0  0  0  0  0  0  0  0
   30.0636   10.3535   21.0276 C   0  0  0  0  0  0  0  0  0  0  0  0
   31.0733   10.2576   21.3335 H   0  0  0  0  0  0  0  0  0  0  0  0
   27.8368    9.4234   20.8669 C   0  0  0  0  0  0  0  0  0  0  0  0
   27.1706    8.6209   21.0469 H   0  0  0  0  0  0  0  0  0  0  0  0
   27.3865   10.5828   20.2289 C   0  0  0  0  0  0  0  0  0  0  0  0
   28.2932   11.6249   19.9961 C   0  0  0  0  0  0  0  0  0  0  0  0
   27.9607   12.5112   19.5185 H   0  0  0  0  0  0  0  0  0  0  0  0
   29.6225   11.5096   20.3928 C   0  0  0  0  0  0  0  0  0  0  0  0
   30.2990   12.3062   20.2118 H   0  0  0  0  0  0  0  0  0  0  0  0
   29.1678    9.3104   21.2641 C   0  0  0  0  0  0  0  0  0  0  0  0
   29.7124    7.8677   22.0542 Cl  0  0  0  0  0  0  0  0  0  0  0  0
  1  4  2  0  0  0  0
  1  5  1  0  0  0  0
  1 14  1  0  0  0  0
  2  3  1  0  0  0  0
  2  5  1  0  0  0  0
  2 15  1  0  0  0  0
  5  6  1  0  0  0  0
  5 22  1  0  0  0  0
  6  7  1  0  0  0  0
  6 10  1  0  0  0  0
  6 11  1  0  0  0  0
  7  8  1  0  0  0  0
  7  9  1  0  0  0  0
  7 11  1  0  0  0  0
 11 12  1  0  0  0  0
 11 13  1  0  0  0  0
 14 15  1  0  0  0  0
 14 18  1  0  0  0  0
 15 16  2  0  0  0  0
 16 17  1  0  0  0  0
 18 19  1  0  0  0  0
 18 20  1  0  0  0  0
 18 21  1  0  0  0  0
 22 23  1  0  0  0  0
 22 30  2  0  0  0  0
 23 24  1  0  0  0  0
 23 25  2  0  0  0  0
 25 26  1  0  0  0  0
 25 27  1  0  0  0  0
 27 28  1  0  0  0  0
 27 29  2  0  0  0  0
 29 30  1  0  0  0  0
 29 36  1  0  0  0  0
 30 31  1  0  0  0  0
 32 33  1  0  0  0  0
 32 39  2  0  0  0  0
 32 41  1  0  0  0  0
 34 35  1  0  0  0  0
 34 36  1  0  0  0  0
 34 41  2  0  0  0  0
 36 37  2  0  0  0  0
 37 38  1  0  0  0  0
 37 39  1  0  0  0  0
 39 40  1  0  0  0  0
 41 42  1  0  0  0  0
M  END
$$$$
bace1_merck_24_13e
  MOE2024           3D
bace1_merck_24_13e
 45 48  0  0  1  0  0  0  0  0999 V2000
   22.7570   11.7990   22.4270 C   0  0  0  0  0  0  0  0  0  0  0  0
   22.6810    9.4210   22.3170 N   0  0  0  0  0  0  0  0  0  0  0  0
   23.4132    8.7759   22.0053 H   0  0  0  0  0  0  0  0  0  0  0  0
   22.8440   12.9770   22.1420 O   0  0  0  0  0  0  0  0  0  0  0  0
   22.5140   10.6120   21.4190 C   0  0  3  0  0  0  0  0  0  0  0  0
   21.0531   10.5570   20.8566 C   0  0  0  0  0  0  0  0  0  0  0  0
   19.9338   10.5437   21.9442 C   0  0  0  0  0  0  0  0  0  0  0  0
   20.1728   11.1085   22.8353 H   0  0  0  0  0  0  0  0  0  0  0  0
   19.5364    9.5603   22.1543 H   0  0  0  0  0  0  0  0  0  0  0  0
   20.9563    9.7347   20.1579 H   0  0  0  0  0  0  0  0  0  0  0  0
   20.4168   11.8854   20.3316 C   0  0  0  0  0  0  0  0  0  0  0  0
   19.0796   11.3741   20.9433 C   0  0  0  0  0  0  0  0  0  0  0  0
   18.5194   10.7512   20.2576 H   0  0  0  0  0  0  0  0  0  0  0  0
   18.4830   12.1471   21.4079 H   0  0  0  0  0  0  0  0  0  0  0  0
   20.3857   11.9757   19.2551 H   0  0  0  0  0  0  0  0  0  0  0  0
   20.7601   12.7837   20.8213 H   0  0  0  0  0  0  0  0  0  0  0  0
   22.9280   11.2580   23.6800 N   0  0  0  0  0  0  0  0  0  0  0  0
   22.8380    9.8400   23.5830 C   0  0  0  0  0  0  0  0  0  0  0  0
   22.9660    9.0450   24.6440 N   0  0  0  0  0  0  0  0  0  0  0  0
   22.8669    8.0906   24.3683 H   0  0  0  0  0  0  0  0  0  0  0  0
   23.1650   12.0560   24.8900 C   0  0  0  0  0  0  0  0  0  0  0  0
   23.2663   11.3924   25.7488 H   0  0  0  0  0  0  0  0  0  0  0  0
   22.3248   12.7317   25.0500 H   0  0  0  0  0  0  0  0  0  0  0  0
   24.0798   12.6361   24.7692 H   0  0  0  0  0  0  0  0  0  0  0  0
   23.6230   10.6630   20.3520 C   0  0  0  0  0  0  0  0  0  0  0  0
   23.3320   10.9440   19.0190 C   0  0  0  0  0  0  0  0  0  0  0  0
   22.3359   11.0417   18.6796 H   0  0  0  0  0  0  0  0  0  0  0  0
   24.3490   11.1290   18.0950 C   0  0  0  0  0  0  0  0  0  0  0  0
   24.1142   11.3564   17.0861 H   0  0  0  0  0  0  0  0  0  0  0  0
   25.6700   11.0210   18.4890 C   0  0  0  0  0  0  0  0  0  0  0  0
   26.4448   11.1655   17.7803 H   0  0  0  0  0  0  0  0  0  0  0  0
   25.9930   10.7080   19.8130 C   0  0  0  0  0  0  0  0  0  0  0  0
   24.9570   10.5240   20.7360 C   0  0  0  0  0  0  0  0  0  0  0  0
   25.2065   10.3194   21.7463 H   0  0  0  0  0  0  0  0  0  0  0  0
   30.0659   10.3511   21.0202 C   0  0  0  0  0  0  0  0  0  0  0  0
   31.0763   10.2543   21.3233 H   0  0  0  0  0  0  0  0  0  0  0  0
   27.8382    9.4219   20.8639 C   0  0  0  0  0  0  0  0  0  0  0  0
   27.1720    8.6195   21.0445 H   0  0  0  0  0  0  0  0  0  0  0  0
   27.3868   10.5822   20.2281 C   0  0  0  0  0  0  0  0  0  0  0  0
   28.2933   11.6245   19.9951 C   0  0  0  0  0  0  0  0  0  0  0  0
   27.9599   12.5116   19.5198 H   0  0  0  0  0  0  0  0  0  0  0  0
   29.6235   11.5082   20.3883 C   0  0  0  0  0  0  0  0  0  0  0  0
   30.2996   12.3050   20.2068 H   0  0  0  0  0  0  0  0  0  0  0  0
   29.1701    9.3080   21.2578 C   0  0  0  0  0  0  0  0  0  0  0  0
   29.7165    7.8642   22.0449 Cl  0  0  0  0  0  0  0  0  0  0  0  0
  1  4  2  0  0  0  0
  1  5  1  0  0  0  0
  1 17  1  0  0  0  0
  2  3  1  0  0  0  0
  2  5  1  0  0  0  0
  2 18  1  0  0  0  0
  5  6  1  0  0  0  0
  5 25  1  0  0  0  0
  6  7  1  0  0  0  0
  6 10  1  0  0  0  0
  6 11  1  0  0  0  0
  7  8  1  0  0  0  0
  7  9  1  0  0  0  0
  7 12  1  0  0  0  0
 11 12  1  0  0  0  0
 11 15  1  0  0  0  0
 11 16  1  0  0  0  0
 12 13  1  0  0  0  0
 12 14  1  0  0  0  0
 17 18  1  0  0  0  0
 17 21  1  0  0  0  0
 18 19  2  0  0  0  0
 19 20  1  0  0  0  0
 21 22  1  0  0  0  0
 21 23  1  0  0  0  0
 21 24  1  0  0  0  0
 25 26  1  0  0  0  0
 25 33  2  0  0  0  0
 26 27  1  0  0  0  0
 26 28  2  0  0  0  0
 28 29  1  0  0  0  0
 28 30  1  0  0  0  0
 30 31  1  0  0  0  0
 30 32  2  0  0  0  0
 32 33  1  0  0  0  0
 32 39  1  0  0  0  0
 33 34  1  0  0  0  0
 35 36  1  0  0  0  0
 35 42  2  0  0  0  0
 35 44  1  0  0  0  0
 37 38  1  0  0  0  0
 37 39  1  0  0  0  0
 37 44  2  0  0  0  0
 39 40  2  0  0  0  0
 40 41  1  0  0  0  0
 40 42  1  0  0  0  0
 42 43  1  0  0  0  0
 44 45  1  0  0  0  0
M  END
$$$$
bace1_merck_25_13f
  MOE2024           3D
bace1_merck_25_13f
 48 51  0  0  1  0  0  0  0  0999 V2000
   22.7570   11.7990   22.4270 C   0  0  0  0  0  0  0  0  0  0  0  0
   22.6810    9.4210   22.3170 N   0  0  0  0  0  0  0  0  0  0  0  0
   23.4132    8.7759   22.0053 H   0  0  0  0  0  0  0  0  0  0  0  0
   22.8440   12.9770   22.1420 O   0  0  0  0  0  0  0  0  0  0  0  0
   22.5140   10.6120   21.4190 C   0  0  3  0  0  0  0  0  0  0  0  0
   21.0337   10.5852   20.8569 C   0  0  0  0  0  0  0  0  0  0  0  0
   19.9745   10.1902   21.9056 C   0  0  0  0  0  0  0  0  0  0  0  0
   20.1298   10.7446   22.8335 H   0  0  0  0  0  0  0  0  0  0  0  0
   19.9925    9.1184   22.1122 H   0  0  0  0  0  0  0  0  0  0  0  0
   20.9548    9.8733   20.0339 H   0  0  0  0  0  0  0  0  0  0  0  0
   20.4533   11.9500   20.4239 C   0  0  0  0  0  0  0  0  0  0  0  0
   18.9706   11.6446   20.2195 C   0  0  0  0  0  0  0  0  0  0  0  0
   18.8159   11.2115   19.2292 H   0  0  0  0  0  0  0  0  0  0  0  0
   18.6326   10.6069   21.2943 C   0  0  0  0  0  0  0  0  0  0  0  0
   18.1393    9.7473   20.8363 H   0  0  0  0  0  0  0  0  0  0  0  0
   17.9862   11.0366   22.0619 H   0  0  0  0  0  0  0  0  0  0  0  0
   18.3641   12.5456   20.3292 H   0  0  0  0  0  0  0  0  0  0  0  0
   20.8988   12.3506   19.5148 H   0  0  0  0  0  0  0  0  0  0  0  0
   20.5381   12.6896   21.2217 H   0  0  0  0  0  0  0  0  0  0  0  0
   22.9280   11.2580   23.6800 N   0  0  0  0  0  0  0  0  0  0  0  0
   22.8380    9.8400   23.5830 C   0  0  0  0  0  0  0  0  0  0  0  0
   22.9660    9.0450   24.6440 N   0  0  0  0  0  0  0  0  0  0  0  0
   22.8669    8.0906   24.3683 H   0  0  0  0  0  0  0  0  0  0  0  0
   23.1650   12.0560   24.8900 C   0  0  0  0  0  0  0  0  0  0  0  0
   23.2663   11.3924   25.7488 H   0  0  0  0  0  0  0  0  0  0  0  0
   22.3248   12.7317   25.0500 H   0  0  0  0  0  0  0  0  0  0  0  0
   24.0798   12.6361   24.7692 H   0  0  0  0  0  0  0  0  0  0  0  0
   23.6230   10.6630   20.3520 C   0  0  0  0  0  0  0  0  0  0  0  0
   23.3320   10.9440   19.0190 C   0  0  0  0  0  0  0  0  0  0  0  0
   22.3376   11.0324   18.6748 H   0  0  0  0  0  0  0  0  0  0  0  0
   24.3490   11.1290   18.0950 C   0  0  0  0  0  0  0  0  0  0  0  0
   24.1142   11.3547   17.0858 H   0  0  0  0  0  0  0  0  0  0  0  0
   25.6700   11.0210   18.4890 C   0  0  0  0  0  0  0  0  0  0  0  0
   26.4447   11.1654   17.7803 H   0  0  0  0  0  0  0  0  0  0  0  0
   25.9930   10.7080   19.8130 C   0  0  0  0  0  0  0  0  0  0  0  0
   24.9570   10.5240   20.7360 C   0  0  0  0  0  0  0  0  0  0  0  0
   25.2059   10.3198   21.7465 H   0  0  0  0  0  0  0  0  0  0  0  0
   30.0633   10.3556   21.0286 C   0  0  0  0  0  0  0  0  0  0  0  0
   31.0729   10.2601   21.3348 H   0  0  0  0  0  0  0  0  0  0  0  0
   27.8357    9.4267   20.8725 C   0  0  0  0  0  0  0  0  0  0  0  0
   27.1684    8.6260   21.0565 H   0  0  0  0  0  0  0  0  0  0  0  0
   27.3864   10.5836   20.2293 C   0  0  0  0  0  0  0  0  0  0  0  0
   28.2939   11.6239   19.9918 C   0  0  0  0  0  0  0  0  0  0  0  0
   27.9619   12.5085   19.5107 H   0  0  0  0  0  0  0  0  0  0  0  0
   29.6232   11.5092   20.3887 C   0  0  0  0  0  0  0  0  0  0  0  0
   30.3002   12.3045   20.2040 H   0  0  0  0  0  0  0  0  0  0  0  0
   29.1666    9.3143   21.2701 C   0  0  0  0  0  0  0  0  0  0  0  0
   29.7102    7.8750   22.0669 Cl  0  0  0  0  0  0  0  0  0  0  0  0
  1  4  2  0  0  0  0
  1  5  1  0  0  0  0
  1 20  1  0  0  0  0
  2  3  1  0  0  0  0
  2  5  1  0  0  0  0
  2 21  1  0  0  0  0
  5  6  1  0  0  0  0
  5 28  1  0  0  0  0
  6  7  1  0  0  0  0
  6 10  1  0  0  0  0
  6 11  1  0  0  0  0
  7  8  1  0  0  0  0
  7  9  1  0  0  0  0
  7 14  1  0  0  0  0
 11 12  1  0  0  0  0
 11 18  1  0  0  0  0
 11 19  1  0  0  0  0
 12 13  1  0  0  0  0
 12 14  1  0  0  0  0
 12 17  1  0  0  0  0
 14 15  1  0  0  0  0
 14 16  1  0  0  0  0
 20 21  1  0  0  0  0
 20 24  1  0  0  0  0
 21 22  2  0  0  0  0
 22 23  1  0  0  0  0
 24 25  1  0  0  0  0
 24 26  1  0  0  0  0
 24 27  1  0  0  0  0
 28 29  1  0  0  0  0
 28 36  2  0  0  0  0
 29 30  1  0  0  0  0
 29 31  2  0  0  0  0
 31 32  1  0  0  0  0
 31 33  1  0  0  0  0
 33 34  1  0  0  0  0
 33 35  2  0  0  0  0
 35 36  1  0  0  0  0
 35 42  1  0  0  0  0
 36 37  1  0  0  0  0
 38 39  1  0  0  0  0
 38 45  2  0  0  0  0
 38 47  1  0  0  0  0
 40 41  1  0  0  0  0
 40 42  1  0  0  0  0
 40 47  2  0  0  0  0
 42 43  2  0  0  0  0
 43 44  1  0  0  0  0
 43 45  1  0  0  0  0
 45 46  1  0  0  0  0
 47 48  1  0  0  0  0
M  END
$$$$
bace1_merck_26_13g
  MOE2024           3D
bace1_merck_26_13g
 51 54  0  0  1  0  0  0  0  0999 V2000
   22.7570   11.7990   22.4270 C   0  0  0  0  0  0  0  0  0  0  0  0
   22.6810    9.4210   22.3170 N   0  0  0  0  0  0  0  0  0  0  0  0
   23.4132    8.7759   22.0053 H   0  0  0  0  0  0  0  0  0  0  0  0
   22.8440   12.9770   22.1420 O   0  0  0  0  0  0  0  0  0  0  0  0
   22.5140   10.6120   21.4190 C   0  0  3  0  0  0  0  0  0  0  0  0
   21.0220   10.6165   20.8557 C   0  0  0  0  0  0  0  0  0  0  0  0
   19.9726   10.0955   21.8790 C   0  0  0  0  0  0  0  0  0  0  0  0
   19.9691   10.7313   22.7667 H   0  0  0  0  0  0  0  0  0  0  0  0
   20.2106    9.0766   22.1884 H   0  0  0  0  0  0  0  0  0  0  0  0
   20.9654    9.9466   19.9978 H   0  0  0  0  0  0  0  0  0  0  0  0
   20.5487   12.0369   20.4303 C   0  0  0  0  0  0  0  0  0  0  0  0
   19.1710   11.9862   19.7576 C   0  0  0  0  0  0  0  0  0  0  0  0
   19.2146   11.3523   18.8701 H   0  0  0  0  0  0  0  0  0  0  0  0
   18.8781   12.9925   19.4524 H   0  0  0  0  0  0  0  0  0  0  0  0
   18.5595   10.0602   21.2729 C   0  0  0  0  0  0  0  0  0  0  0  0
   17.8487    9.7323   22.0336 H   0  0  0  0  0  0  0  0  0  0  0  0
   18.5386    9.3376   20.4548 H   0  0  0  0  0  0  0  0  0  0  0  0
   18.1318   11.4330   20.7401 C   0  0  0  0  0  0  0  0  0  0  0  0
   17.1661   11.3451   20.2390 H   0  0  0  0  0  0  0  0  0  0  0  0
   18.0228   12.1254   21.5773 H   0  0  0  0  0  0  0  0  0  0  0  0
   21.2567   12.5151   19.7552 H   0  0  0  0  0  0  0  0  0  0  0  0
   20.4619   12.6803   21.3080 H   0  0  0  0  0  0  0  0  0  0  0  0
   22.9280   11.2580   23.6800 N   0  0  0  0  0  0  0  0  0  0  0  0
   22.8380    9.8400   23.5830 C   0  0  0  0  0  0  0  0  0  0  0  0
   22.9660    9.0450   24.6440 N   0  0  0  0  0  0  0  0  0  0  0  0
   22.8669    8.0906   24.3683 H   0  0  0  0  0  0  0  0  0  0  0  0
   23.1650   12.0560   24.8900 C   0  0  0  0  0  0  0  0  0  0  0  0
   23.2663   11.3924   25.7488 H   0  0  0  0  0  0  0  0  0  0  0  0
   22.3248   12.7317   25.0500 H   0  0  0  0  0  0  0  0  0  0  0  0
   24.0798   12.6361   24.7692 H   0  0  0  0  0  0  0  0  0  0  0  0
   23.6230   10.6630   20.3520 C   0  0  0  0  0  0  0  0  0  0  0  0
   23.3320   10.9440   19.0190 C   0  0  0  0  0  0  0  0  0  0  0  0
   22.3381   11.0315   18.6710 H   0  0  0  0  0  0  0  0  0  0  0  0
   24.3490   11.1290   18.0950 C   0  0  0  0  0  0  0  0  0  0  0  0
   24.1141   11.3546   17.0857 H   0  0  0  0  0  0  0  0  0  0  0  0
   25.6700   11.0210   18.4890 C   0  0  0  0  0  0  0  0  0  0  0  0
   26.4447   11.1653   17.7803 H   0  0  0  0  0  0  0  0  0  0  0  0
   25.9930   10.7080   19.8130 C   0  0  0  0  0  0  0  0  0  0  0  0
   24.9570   10.5240   20.7360 C   0  0  0  0  0  0  0  0  0  0  0  0
   25.2059   10.3199   21.7465 H   0  0  0  0  0  0  0  0  0  0  0  0
   30.0635   10.3567   21.0288 C   0  0  0  0  0  0  0  0  0  0  0  0
   31.0731   10.2615   21.3350 H   0  0  0  0  0  0  0  0  0  0  0  0
   27.8361    9.4271   20.8728 C   0  0  0  0  0  0  0  0  0  0  0  0
   27.1691    8.6261   21.0569 H   0  0  0  0  0  0  0  0  0  0  0  0
   27.3864   10.5838   20.2294 C   0  0  0  0  0  0  0  0  0  0  0  0
   28.2937   11.6244   19.9920 C   0  0  0  0  0  0  0  0  0  0  0  0
   27.9615   12.5089   19.5108 H   0  0  0  0  0  0  0  0  0  0  0  0
   29.6230   11.5101   20.3889 C   0  0  0  0  0  0  0  0  0  0  0  0
   30.2998   12.3055   20.2043 H   0  0  0  0  0  0  0  0  0  0  0  0
   29.1670    9.3151   21.2704 C   0  0  0  0  0  0  0  0  0  0  0  0
   29.7112    7.8759   22.0670 Cl  0  0  0  0  0  0  0  0  0  0  0  0
  1  4  2  0  0  0  0
  1  5  1  0  0  0  0
  1 23  1  0  0  0  0
  2  3  1  0  0  0  0
  2  5  1  0  0  0  0
  2 24  1  0  0  0  0
  5  6  1  0  0  0  0
  5 31  1  0  0  0  0
  6  7  1  0  0  0  0
  6 10  1  0  0  0  0
  6 11  1  0  0  0  0
  7  8  1  0  0  0  0
  7  9  1  0  0  0  0
  7 15  1  0  0  0  0
 11 12  1  0  0  0  0
 11 21  1  0  0  0  0
 11 22  1  0  0  0  0
 12 13  1  0  0  0  0
 12 14  1  0  0  0  0
 12 18  1  0  0  0  0
 15 16  1  0  0  0  0
 15 17  1  0  0  0  0
 15 18  1  0  0  0  0
 18 19  1  0  0  0  0
 18 20  1  0  0  0  0
 23 24  1  0  0  0  0
 23 27  1  0  0  0  0
 24 25  2  0  0  0  0
 25 26  1  0  0  0  0
 27 28  1  0  0  0  0
 27 29  1  0  0  0  0
 27 30  1  0  0  0  0
 31 32  1  0  0  0  0
 31 39  2  0  0  0  0
 32 33  1  0  0  0  0
 32 34  2  0  0  0  0
 34 35  1  0  0  0  0
 34 36  1  0  0  0  0
 36 37  1  0  0  0  0
 36 38  2  0  0  0  0
 38 39  1  0  0  0  0
 38 45  1  0  0  0  0
 39 40  1  0  0  0  0
 41 42  1  0  0  0  0
 41 48  2  0  0  0  0
 41 50  1  0  0  0  0
 43 44  1  0  0  0  0
 43 45  1  0  0  0  0
 43 50  2  0  0  0  0
 45 46  2  0  0  0  0
 46 47  1  0  0  0  0
 46 48  1  0  0  0  0
 48 49  1  0  0  0  0
 50 51  1  0  0  0  0
M  END
$$$$
bace1_merck_27_13h
  MOE2024           3D
bace1_merck_27_13h
 45 48  0  0  1  0  0  0  0  0999 V2000
   22.7570   11.7990   22.4270 C   0  0  0  0  0  0  0  0  0  0  0  0
   22.6810    9.4210   22.3170 N   0  0  0  0  0  0  0  0  0  0  0  0
   23.4132    8.7759   22.0053 H   0  0  0  0  0  0  0  0  0  0  0  0
   22.8440   12.9770   22.1420 O   0  0  0  0  0  0  0  0  0  0  0  0
   22.5140   10.6120   21.4190 C   0  0  3  0  0  0  0  0  0  0  0  0
   21.0380   10.5313   20.8467 C   0  0  0  0  0  0  0  0  0  0  0  0
   19.9125   11.1299   21.6446 C   0  0  0  0  0  0  0  0  0  0  0  0
   20.1456   11.6661   22.5549 H   0  0  0  0  0  0  0  0  0  0  0  0
   18.9630   10.6106   21.6186 H   0  0  0  0  0  0  0  0  0  0  0  0
   20.6824    9.2023   20.1308 C   0  0  0  0  0  0  0  0  0  0  0  0
   20.6241    8.4314   20.8874 H   0  0  0  0  0  0  0  0  0  0  0  0
   21.4547    8.9740   19.4107 H   0  0  0  0  0  0  0  0  0  0  0  0
   19.7252    9.3149   19.6403 H   0  0  0  0  0  0  0  0  0  0  0  0
   20.3646   11.7783   20.3451 C   0  0  0  0  0  0  0  0  0  0  0  0
   19.6953   11.6779   19.5005 H   0  0  0  0  0  0  0  0  0  0  0  0
   20.9028   12.7138   20.4344 H   0  0  0  0  0  0  0  0  0  0  0  0
   22.9280   11.2580   23.6800 N   0  0  0  0  0  0  0  0  0  0  0  0
   22.8380    9.8400   23.5830 C   0  0  0  0  0  0  0  0  0  0  0  0
   22.9553    9.0514   24.5445 N   0  0  0  0  0  0  0  0  0  0  0  0
   22.8414    8.1137   24.2225 H   0  0  0  0  0  0  0  0  0  0  0  0
   23.1650   12.0560   24.8900 C   0  0  0  0  0  0  0  0  0  0  0  0
   23.2663   11.3924   25.7488 H   0  0  0  0  0  0  0  0  0  0  0  0
   22.3248   12.7317   25.0500 H   0  0  0  0  0  0  0  0  0  0  0  0
   24.0798   12.6361   24.7692 H   0  0  0  0  0  0  0  0  0  0  0  0
   23.6230   10.6630   20.3520 C   0  0  0  0  0  0  0  0  0  0  0  0
   23.3320   10.9440   19.0190 C   0  0  0  0  0  0  0  0  0  0  0  0
   22.3313   11.0539   18.6892 H   0  0  0  0  0  0  0  0  0  0  0  0
   24.3490   11.1290   18.0950 C   0  0  0  0  0  0  0  0  0  0  0  0
   24.1139   11.3586   17.0867 H   0  0  0  0  0  0  0  0  0  0  0  0
   25.6700   11.0210   18.4890 C   0  0  0  0  0  0  0  0  0  0  0  0
   26.4447   11.1660   17.7804 H   0  0  0  0  0  0  0  0  0  0  0  0
   25.9930   10.7080   19.8130 C   0  0  0  0  0  0  0  0  0  0  0  0
   24.9570   10.5240   20.7360 C   0  0  0  0  0  0  0  0  0  0  0  0
   25.2069   10.3192   21.7462 H   0  0  0  0  0  0  0  0  0  0  0  0
   30.0636   10.3535   21.0276 C   0  0  0  0  0  0  0  0  0  0  0  0
   31.0733   10.2576   21.3335 H   0  0  0  0  0  0  0  0  0  0  0  0
   27.8368    9.4234   20.8669 C   0  0  0  0  0  0  0  0  0  0  0  0
   27.1706    8.6209   21.0469 H   0  0  0  0  0  0  0  0  0  0  0  0
   27.3865   10.5828   20.2289 C   0  0  0  0  0  0  0  0  0  0  0  0
   28.2932   11.6249   19.9961 C   0  0  0  0  0  0  0  0  0  0  0  0
   27.9607   12.5112   19.5185 H   0  0  0  0  0  0  0  0  0  0  0  0
   29.6225   11.5096   20.3928 C   0  0  0  0  0  0  0  0  0  0  0  0
   30.2990   12.3062   20.2118 H   0  0  0  0  0  0  0  0  0  0  0  0
   29.1678    9.3104   21.2641 C   0  0  0  0  0  0  0  0  0  0  0  0
   29.7124    7.8677   22.0542 Cl  0  0  0  0  0  0  0  0  0  0  0  0
  1  4  2  0  0  0  0
  1  5  1  0  0  0  0
  1 17  1  0  0  0  0
  2  3  1  0  0  0  0
  2  5  1  0  0  0  0
  2 18  1  0  0  0  0
  5  6  1  0  0  0  0
  5 25  1  0  0  0  0
  6  7  1  0  0  0  0
  6 10  1  0  0  0  0
  6 14  1  0  0  0  0
  7  8  1  0  0  0  0
  7  9  1  0  0  0  0
  7 14  1  0  0  0  0
 10 11  1  0  0  0  0
 10 12  1  0  0  0  0
 10 13  1  0  0  0  0
 14 15  1  0  0  0  0
 14 16  1  0  0  0  0
 17 18  1  0  0  0  0
 17 21  1  0  0  0  0
 18 19  2  0  0  0  0
 19 20  1  0  0  0  0
 21 22  1  0  0  0  0
 21 23  1  0  0  0  0
 21 24  1  0  0  0  0
 25 26  1  0  0  0  0
 25 33  2  0  0  0  0
 26 27  1  0  0  0  0
 26 28  2  0  0  0  0
 28 29  1  0  0  0  0
 28 30  1  0  0  0  0
 30 31  1  0  0  0  0
 30 32  2  0  0  0  0
 32 33  1  0  0  0  0
 32 39  1  0  0  0  0
 33 34  1  0  0  0  0
 35 36  1  0  0  0  0
 35 42  2  0  0  0  0
 35 44  1  0  0  0  0
 37 38  1  0  0  0  0
 37 39  1  0  0  0  0
 37 44  2  0  0  0  0
 39 40  2  0  0  0  0
 40 41  1  0  0  0  0
 40 42  1  0  0  0  0
 42 43  1  0  0  0  0
 44 45  1  0  0  0  0
M  END
$$$$
bace1_merck_28_13i
  MOE2024           3D
bace1_merck_28_13i
 45 48  0  0  1  0  0  0  0  0999 V2000
   22.7570   11.7990   22.4270 C   0  0  0  0  0  0  0  0  0  0  0  0
   22.6810    9.4210   22.3170 N   0  0  0  0  0  0  0  0  0  0  0  0
   23.4132    8.7759   22.0053 H   0  0  0  0  0  0  0  0  0  0  0  0
   22.8440   12.9770   22.1420 O   0  0  0  0  0  0  0  0  0  0  0  0
   22.5140   10.6120   21.4190 C   0  0  3  0  0  0  0  0  0  0  0  0
   21.0721   10.5035   20.8269 C   0  0  3  0  0  0  0  0  0  0  0  0
   20.9263    9.6299   20.2062 H   0  0  0  0  0  0  0  0  0  0  0  0
   19.9257   10.9557   21.6849 C   0  0  3  0  0  0  0  0  0  0  0  0
   20.1117   11.3707   22.6683 H   0  0  0  0  0  0  0  0  0  0  0  0
   18.6381   10.1275   21.5537 C   0  0  0  0  0  0  0  0  0  0  0  0
   17.8157   10.7745   21.8261 H   0  0  0  0  0  0  0  0  0  0  0  0
   18.7246    9.2979   22.2423 H   0  0  0  0  0  0  0  0  0  0  0  0
   18.5358    9.7779   20.5350 H   0  0  0  0  0  0  0  0  0  0  0  0
   20.3135   11.7663   20.4720 C   0  0  0  0  0  0  0  0  0  0  0  0
   19.6561   11.7111   19.6138 H   0  0  0  0  0  0  0  0  0  0  0  0
   20.7893   12.7201   20.6598 H   0  0  0  0  0  0  0  0  0  0  0  0
   22.9280   11.2580   23.6800 N   0  0  0  0  0  0  0  0  0  0  0  0
   22.8380    9.8400   23.5830 C   0  0  0  0  0  0  0  0  0  0  0  0
   22.9553    9.0514   24.5445 N   0  0  0  0  0  0  0  0  0  0  0  0
   22.8414    8.1137   24.2225 H   0  0  0  0  0  0  0  0  0  0  0  0
   23.1650   12.0560   24.8900 C   0  0  0  0  0  0  0  0  0  0  0  0
   23.2663   11.3924   25.7488 H   0  0  0  0  0  0  0  0  0  0  0  0
   22.3248   12.7317   25.0500 H   0  0  0  0  0  0  0  0  0  0  0  0
   24.0798   12.6361   24.7692 H   0  0  0  0  0  0  0  0  0  0  0  0
   23.6230   10.6630   20.3520 C   0  0  0  0  0  0  0  0  0  0  0  0
   23.3320   10.9440   19.0190 C   0  0  0  0  0  0  0  0  0  0  0  0
   22.3313   11.0539   18.6892 H   0  0  0  0  0  0  0  0  0  0  0  0
   24.3490   11.1290   18.0950 C   0  0  0  0  0  0  0  0  0  0  0  0
   24.1139   11.3586   17.0867 H   0  0  0  0  0  0  0  0  0  0  0  0
   25.6700   11.0210   18.4890 C   0  0  0  0  0  0  0  0  0  0  0  0
   26.4447   11.1660   17.7804 H   0  0  0  0  0  0  0  0  0  0  0  0
   25.9930   10.7080   19.8130 C   0  0  0  0  0  0  0  0  0  0  0  0
   24.9570   10.5240   20.7360 C   0  0  0  0  0  0  0  0  0  0  0  0
   25.2069   10.3192   21.7462 H   0  0  0  0  0  0  0  0  0  0  0  0
   30.0636   10.3535   21.0276 C   0  0  0  0  0  0  0  0  0  0  0  0
   31.0733   10.2576   21.3335 H   0  0  0  0  0  0  0  0  0  0  0  0
   27.8368    9.4234   20.8669 C   0  0  0  0  0  0  0  0  0  0  0  0
   27.1706    8.6209   21.0469 H   0  0  0  0  0  0  0  0  0  0  0  0
   27.3865   10.5828   20.2289 C   0  0  0  0  0  0  0  0  0  0  0  0
   28.2932   11.6249   19.9961 C   0  0  0  0  0  0  0  0  0  0  0  0
   27.9607   12.5112   19.5185 H   0  0  0  0  0  0  0  0  0  0  0  0
   29.6225   11.5096   20.3928 C   0  0  0  0  0  0  0  0  0  0  0  0
   30.2990   12.3062   20.2118 H   0  0  0  0  0  0  0  0  0  0  0  0
   29.1678    9.3104   21.2641 C   0  0  0  0  0  0  0  0  0  0  0  0
   29.7124    7.8677   22.0542 Cl  0  0  0  0  0  0  0  0  0  0  0  0
  1  4  2  0  0  0  0
  1  5  1  0  0  0  0
  1 17  1  0  0  0  0
  2  3  1  0  0  0  0
  2  5  1  0  0  0  0
  2 18  1  0  0  0  0
  5  6  1  0  0  0  0
  5 25  1  0  0  0  0
  6  7  1  0  0  0  0
  6  8  1  0  0  0  0
  6 14  1  0  0  0  0
  8  9  1  0  0  0  0
  8 10  1  0  0  0  0
  8 14  1  0  0  0  0
 10 11  1  0  0  0  0
 10 12  1  0  0  0  0
 10 13  1  0  0  0  0
 14 15  1  0  0  0  0
 14 16  1  0  0  0  0
 17 18  1  0  0  0  0
 17 21  1  0  0  0  0
 18 19  2  0  0  0  0
 19 20  1  0  0  0  0
 21 22  1  0  0  0  0
 21 23  1  0  0  0  0
 21 24  1  0  0  0  0
 25 26  1  0  0  0  0
 25 33  2  0  0  0  0
 26 27  1  0  0  0  0
 26 28  2  0  0  0  0
 28 29  1  0  0  0  0
 28 30  1  0  0  0  0
 30 31  1  0  0  0  0
 30 32  2  0  0  0  0
 32 33  1  0  0  0  0
 32 39  1  0  0  0  0
 33 34  1  0  0  0  0
 35 36  1  0  0  0  0
 35 42  2  0  0  0  0
 35 44  1  0  0  0  0
 37 38  1  0  0  0  0
 37 39  1  0  0  0  0
 37 44  2  0  0  0  0
 39 40  2  0  0  0  0
 40 41  1  0  0  0  0
 40 42  1  0  0  0  0
 42 43  1  0  0  0  0
 44 45  1  0  0  0  0
M  END
$$$$
bace1_merck_29_13j
  MOE2024           3D
bace1_merck_29_13j
 44 47  0  0  1  0  0  0  0  0999 V2000
   22.7570   11.7990   22.4270 C   0  0  0  0  0  0  0  0  0  0  0  0
   22.6810    9.4210   22.3170 N   0  0  0  0  0  0  0  0  0  0  0  0
   23.4132    8.7759   22.0053 H   0  0  0  0  0  0  0  0  0  0  0  0
   22.8440   12.9770   22.1420 O   0  0  0  0  0  0  0  0  0  0  0  0
   22.5140   10.6120   21.4190 C   0  0  3  0  0  0  0  0  0  0  0  0
   22.9280   11.2580   23.6800 N   0  0  0  0  0  0  0  0  0  0  0  0
   22.8380    9.8400   23.5830 C   0  0  0  0  0  0  0  0  0  0  0  0
   22.9660    9.0450   24.6440 N   0  0  0  0  0  0  0  0  0  0  0  0
   22.8669    8.0906   24.3683 H   0  0  0  0  0  0  0  0  0  0  0  0
   23.1650   12.0560   24.8900 C   0  0  0  0  0  0  0  0  0  0  0  0
   23.2663   11.3924   25.7488 H   0  0  0  0  0  0  0  0  0  0  0  0
   22.3248   12.7317   25.0500 H   0  0  0  0  0  0  0  0  0  0  0  0
   24.0798   12.6361   24.7692 H   0  0  0  0  0  0  0  0  0  0  0  0
   23.6230   10.6630   20.3520 C   0  0  0  0  0  0  0  0  0  0  0  0
   23.3320   10.9440   19.0190 C   0  0  0  0  0  0  0  0  0  0  0  0
   22.3320   11.0501   18.6871 H   0  0  0  0  0  0  0  0  0  0  0  0
   24.3490   11.1290   18.0950 C   0  0  0  0  0  0  0  0  0  0  0  0
   24.1142   11.3577   17.0864 H   0  0  0  0  0  0  0  0  0  0  0  0
   25.6700   11.0210   18.4890 C   0  0  0  0  0  0  0  0  0  0  0  0
   26.4446   11.1651   17.7801 H   0  0  0  0  0  0  0  0  0  0  0  0
   25.9930   10.7080   19.8130 C   0  0  0  0  0  0  0  0  0  0  0  0
   24.9570   10.5240   20.7360 C   0  0  0  0  0  0  0  0  0  0  0  0
   25.2059   10.3192   21.7464 H   0  0  0  0  0  0  0  0  0  0  0  0
   30.0681   10.3319   21.0083 C   0  0  0  0  0  0  0  0  0  0  0  0
   31.0792   10.2295   21.3075 H   0  0  0  0  0  0  0  0  0  0  0  0
   27.8315    9.4213   20.8740 C   0  0  0  0  0  0  0  0  0  0  0  0
   27.1593    8.6269   21.0675 H   0  0  0  0  0  0  0  0  0  0  0  0
   27.3873   10.5774   20.2257 C   0  0  0  0  0  0  0  0  0  0  0  0
   28.3020   11.6088   19.9760 C   0  0  0  0  0  0  0  0  0  0  0  0
   27.9744   12.4928   19.4911 H   0  0  0  0  0  0  0  0  0  0  0  0
   29.6331   11.4852   20.3644 C   0  0  0  0  0  0  0  0  0  0  0  0
   30.3155   12.2734   20.1699 H   0  0  0  0  0  0  0  0  0  0  0  0
   29.1642    9.3003   21.2632 C   0  0  0  0  0  0  0  0  0  0  0  0
   29.7013    7.8616   22.0654 Cl  0  0  0  0  0  0  0  0  0  0  0  0
   18.5694   10.5303   19.7005 C   0  0  0  0  0  0  0  0  0  0  0  0
   17.6068   10.4569   19.2649 H   0  0  0  0  0  0  0  0  0  0  0  0
   19.4138    9.4277   19.7134 C   0  0  0  0  0  0  0  0  0  0  0  0
   19.1021    8.5074   19.2867 H   0  0  0  0  0  0  0  0  0  0  0  0
   20.6277    9.4883   20.2545 N   0  0  0  0  0  0  0  0  0  0  0  0
   21.0810   10.6251   20.8203 C   0  0  0  0  0  0  0  0  0  0  0  0
   20.2668   11.7668   20.8219 C   0  0  0  0  0  0  0  0  0  0  0  0
   20.6008   12.6788   21.2429 H   0  0  0  0  0  0  0  0  0  0  0  0
   18.9984   11.7226   20.2606 C   0  0  0  0  0  0  0  0  0  0  0  0
   18.3738   12.5799   20.2599 H   0  0  0  0  0  0  0  0  0  0  0  0
  1  4  2  0  0  0  0
  1  5  1  0  0  0  0
  1  6  1  0  0  0  0
  2  3  1  0  0  0  0
  2  5  1  0  0  0  0
  2  7  1  0  0  0  0
  5 14  1  0  0  0  0
  5 40  1  0  0  0  0
  6  7  1  0  0  0  0
  6 10  1  0  0  0  0
  7  8  2  0  0  0  0
  8  9  1  0  0  0  0
 10 11  1  0  0  0  0
 10 12  1  0  0  0  0
 10 13  1  0  0  0  0
 14 15  1  0  0  0  0
 14 22  2  0  0  0  0
 15 16  1  0  0  0  0
 15 17  2  0  0  0  0
 17 18  1  0  0  0  0
 17 19  1  0  0  0  0
 19 20  1  0  0  0  0
 19 21  2  0  0  0  0
 21 22  1  0  0  0  0
 21 28  1  0  0  0  0
 22 23  1  0  0  0  0
 24 25  1  0  0  0  0
 24 31  2  0  0  0  0
 24 33  1  0  0  0  0
 26 27  1  0  0  0  0
 26 28  1  0  0  0  0
 26 33  2  0  0  0  0
 28 29  2  0  0  0  0
 29 30  1  0  0  0  0
 29 31  1  0  0  0  0
 31 32  1  0  0  0  0
 33 34  1  0  0  0  0
 35 36  1  0  0  0  0
 35 37  1  0  0  0  0
 35 43  2  0  0  0  0
 37 38  1  0  0  0  0
 37 39  2  0  0  0  0
 39 40  1  0  0  0  0
 40 41  2  0  0  0  0
 41 42  1  0  0  0  0
 41 43  1  0  0  0  0
 43 44  1  0  0  0  0
M  END
$$$$
bace1_merck_30_13k
  MOE2024           3D
bace1_merck_30_13k
 44 47  0  0  1  0  0  0  0  0999 V2000
   22.7570   11.7990   22.4270 C   0  0  0  0  0  0  0  0  0  0  0  0
   22.6810    9.4210   22.3170 N   0  0  0  0  0  0  0  0  0  0  0  0
   23.4132    8.7759   22.0053 H   0  0  0  0  0  0  0  0  0  0  0  0
   22.8440   12.9770   22.1420 O   0  0  0  0  0  0  0  0  0  0  0  0
   22.5140   10.6120   21.4190 C   0  0  3  0  0  0  0  0  0  0  0  0
   22.9280   11.2580   23.6800 N   0  0  0  0  0  0  0  0  0  0  0  0
   22.8380    9.8400   23.5830 C   0  0  0  0  0  0  0  0  0  0  0  0
   22.9660    9.0450   24.6440 N   0  0  0  0  0  0  0  0  0  0  0  0
   22.8669    8.0906   24.3683 H   0  0  0  0  0  0  0  0  0  0  0  0
   23.1650   12.0560   24.8900 C   0  0  0  0  0  0  0  0  0  0  0  0
   23.2663   11.3924   25.7488 H   0  0  0  0  0  0  0  0  0  0  0  0
   22.3248   12.7317   25.0500 H   0  0  0  0  0  0  0  0  0  0  0  0
   24.0798   12.6361   24.7692 H   0  0  0  0  0  0  0  0  0  0  0  0
   23.6230   10.6630   20.3520 C   0  0  0  0  0  0  0  0  0  0  0  0
   23.3320   10.9440   19.0190 C   0  0  0  0  0  0  0  0  0  0  0  0
   22.3320   11.0501   18.6871 H   0  0  0  0  0  0  0  0  0  0  0  0
   24.3490   11.1290   18.0950 C   0  0  0  0  0  0  0  0  0  0  0  0
   24.1142   11.3577   17.0864 H   0  0  0  0  0  0  0  0  0  0  0  0
   25.6700   11.0210   18.4890 C   0  0  0  0  0  0  0  0  0  0  0  0
   26.4446   11.1651   17.7801 H   0  0  0  0  0  0  0  0  0  0  0  0
   25.9930   10.7080   19.8130 C   0  0  0  0  0  0  0  0  0  0  0  0
   24.9570   10.5240   20.7360 C   0  0  0  0  0  0  0  0  0  0  0  0
   25.2059   10.3192   21.7464 H   0  0  0  0  0  0  0  0  0  0  0  0
   30.0681   10.3319   21.0083 C   0  0  0  0  0  0  0  0  0  0  0  0
   31.0792   10.2295   21.3075 H   0  0  0  0  0  0  0  0  0  0  0  0
   27.8315    9.4213   20.8740 C   0  0  0  0  0  0  0  0  0  0  0  0
   27.1593    8.6269   21.0675 H   0  0  0  0  0  0  0  0  0  0  0  0
   27.3873   10.5774   20.2257 C   0  0  0  0  0  0  0  0  0  0  0  0
   28.3020   11.6088   19.9760 C   0  0  0  0  0  0  0  0  0  0  0  0
   27.9744   12.4928   19.4911 H   0  0  0  0  0  0  0  0  0  0  0  0
   29.6331   11.4852   20.3644 C   0  0  0  0  0  0  0  0  0  0  0  0
   30.3155   12.2734   20.1699 H   0  0  0  0  0  0  0  0  0  0  0  0
   29.1642    9.3003   21.2632 C   0  0  0  0  0  0  0  0  0  0  0  0
   29.7013    7.8616   22.0654 Cl  0  0  0  0  0  0  0  0  0  0  0  0
   18.6033   10.4382   19.7032 C   0  0  0  0  0  0  0  0  0  0  0  0
   17.6391   10.3504   19.2693 H   0  0  0  0  0  0  0  0  0  0  0  0
   19.2983    9.3247   19.9165 N   0  0  0  0  0  0  0  0  0  0  0  0
   20.5107    9.3933   20.4638 C   0  0  0  0  0  0  0  0  0  0  0  0
   21.0255    8.4774   20.6125 H   0  0  0  0  0  0  0  0  0  0  0  0
   21.0982   10.6073   20.8280 C   0  0  0  0  0  0  0  0  0  0  0  0
   20.3797   11.7826   20.5982 C   0  0  0  0  0  0  0  0  0  0  0  0
   20.7753   12.7379   20.8358 H   0  0  0  0  0  0  0  0  0  0  0  0
   19.1167   11.6867   20.0330 C   0  0  0  0  0  0  0  0  0  0  0  0
   18.5443   12.5592   19.8500 H   0  0  0  0  0  0  0  0  0  0  0  0
  1  4  2  0  0  0  0
  1  5  1  0  0  0  0
  1  6  1  0  0  0  0
  2  3  1  0  0  0  0
  2  5  1  0  0  0  0
  2  7  1  0  0  0  0
  5 14  1  0  0  0  0
  5 40  1  0  0  0  0
  6  7  1  0  0  0  0
  6 10  1  0  0  0  0
  7  8  2  0  0  0  0
  8  9  1  0  0  0  0
 10 11  1  0  0  0  0
 10 12  1  0  0  0  0
 10 13  1  0  0  0  0
 14 15  1  0  0  0  0
 14 22  2  0  0  0  0
 15 16  1  0  0  0  0
 15 17  2  0  0  0  0
 17 18  1  0  0  0  0
 17 19  1  0  0  0  0
 19 20  1  0  0  0  0
 19 21  2  0  0  0  0
 21 22  1  0  0  0  0
 21 28  1  0  0  0  0
 22 23  1  0  0  0  0
 24 25  1  0  0  0  0
 24 31  2  0  0  0  0
 24 33  1  0  0  0  0
 26 27  1  0  0  0  0
 26 28  1  0  0  0  0
 26 33  2  0  0  0  0
 28 29  2  0  0  0  0
 29 30  1  0  0  0  0
 29 31  1  0  0  0  0
 31 32  1  0  0  0  0
 33 34  1  0  0  0  0
 35 36  1  0  0  0  0
 35 37  1  0  0  0  0
 35 43  2  0  0  0  0
 37 38  2  0  0  0  0
 38 39  1  0  0  0  0
 38 40  1  0  0  0  0
 40 41  2  0  0  0  0
 41 42  1  0  0  0  0
 41 43  1  0  0  0  0
 43 44  1  0  0  0  0
M  END
$$$$
bace1_merck_31_13l
  MOE2024           3D
bace1_merck_31_13l
 44 47  0  0  1  0  0  0  0  0999 V2000
   22.7570   11.7990   22.4270 C   0  0  0  0  0  0  0  0  0  0  0  0
   22.6810    9.4210   22.3170 N   0  0  0  0  0  0  0  0  0  0  0  0
   23.4132    8.7759   22.0053 H   0  0  0  0  0  0  0  0  0  0  0  0
   22.8440   12.9770   22.1420 O   0  0  0  0  0  0  0  0  0  0  0  0
   22.5140   10.6120   21.4190 C   0  0  3  0  0  0  0  0  0  0  0  0
   22.9280   11.2580   23.6800 N   0  0  0  0  0  0  0  0  0  0  0  0
   22.8380    9.8400   23.5830 C   0  0  0  0  0  0  0  0  0  0  0  0
   22.9660    9.0450   24.6440 N   0  0  0  0  0  0  0  0  0  0  0  0
   22.8669    8.0906   24.3683 H   0  0  0  0  0  0  0  0  0  0  0  0
   23.1650   12.0560   24.8900 C   0  0  0  0  0  0  0  0  0  0  0  0
   23.2663   11.3924   25.7488 H   0  0  0  0  0  0  0  0  0  0  0  0
   22.3248   12.7317   25.0500 H   0  0  0  0  0  0  0  0  0  0  0  0
   24.0798   12.6361   24.7692 H   0  0  0  0  0  0  0  0  0  0  0  0
   23.6230   10.6630   20.3520 C   0  0  0  0  0  0  0  0  0  0  0  0
   23.3320   10.9440   19.0190 C   0  0  0  0  0  0  0  0  0  0  0  0
   22.3320   11.0501   18.6871 H   0  0  0  0  0  0  0  0  0  0  0  0
   24.3490   11.1290   18.0950 C   0  0  0  0  0  0  0  0  0  0  0  0
   24.1142   11.3577   17.0864 H   0  0  0  0  0  0  0  0  0  0  0  0
   25.6700   11.0210   18.4890 C   0  0  0  0  0  0  0  0  0  0  0  0
   26.4446   11.1651   17.7801 H   0  0  0  0  0  0  0  0  0  0  0  0
   25.9930   10.7080   19.8130 C   0  0  0  0  0  0  0  0  0  0  0  0
   24.9570   10.5240   20.7360 C   0  0  0  0  0  0  0  0  0  0  0  0
   25.2059   10.3192   21.7464 H   0  0  0  0  0  0  0  0  0  0  0  0
   30.0681   10.3319   21.0083 C   0  0  0  0  0  0  0  0  0  0  0  0
   31.0792   10.2295   21.3075 H   0  0  0  0  0  0  0  0  0  0  0  0
   27.8315    9.4213   20.8740 C   0  0  0  0  0  0  0  0  0  0  0  0
   27.1593    8.6269   21.0675 H   0  0  0  0  0  0  0  0  0  0  0  0
   27.3873   10.5774   20.2257 C   0  0  0  0  0  0  0  0  0  0  0  0
   28.3020   11.6088   19.9760 C   0  0  0  0  0  0  0  0  0  0  0  0
   27.9744   12.4928   19.4911 H   0  0  0  0  0  0  0  0  0  0  0  0
   29.6331   11.4852   20.3644 C   0  0  0  0  0  0  0  0  0  0  0  0
   30.3155   12.2734   20.1699 H   0  0  0  0  0  0  0  0  0  0  0  0
   29.1642    9.3003   21.2632 C   0  0  0  0  0  0  0  0  0  0  0  0
   29.7013    7.8616   22.0654 Cl  0  0  0  0  0  0  0  0  0  0  0  0
   18.5270   10.5744   19.7162 N   0  0  0  0  0  0  0  0  0  0  0  0
   19.1633    9.4335   19.9626 C   0  0  0  0  0  0  0  0  0  0  0  0
   18.6670    8.5262   19.7250 H   0  0  0  0  0  0  0  0  0  0  0  0
   20.4408    9.4124   20.5129 C   0  0  0  0  0  0  0  0  0  0  0  0
   20.9097    8.4785   20.6869 H   0  0  0  0  0  0  0  0  0  0  0  0
   21.0897   10.6063   20.8306 C   0  0  0  0  0  0  0  0  0  0  0  0
   20.3935   11.7846   20.5543 C   0  0  0  0  0  0  0  0  0  0  0  0
   20.8211   12.7340   20.7506 H   0  0  0  0  0  0  0  0  0  0  0  0
   19.1176   11.7306   20.0022 C   0  0  0  0  0  0  0  0  0  0  0  0
   18.5861   12.6252   19.7941 H   0  0  0  0  0  0  0  0  0  0  0  0
  1  4  2  0  0  0  0
  1  5  1  0  0  0  0
  1  6  1  0  0  0  0
  2  3  1  0  0  0  0
  2  5  1  0  0  0  0
  2  7  1  0  0  0  0
  5 14  1  0  0  0  0
  5 40  1  0  0  0  0
  6  7  1  0  0  0  0
  6 10  1  0  0  0  0
  7  8  2  0  0  0  0
  8  9  1  0  0  0  0
 10 11  1  0  0  0  0
 10 12  1  0  0  0  0
 10 13  1  0  0  0  0
 14 15  1  0  0  0  0
 14 22  2  0  0  0  0
 15 16  1  0  0  0  0
 15 17  2  0  0  0  0
 17 18  1  0  0  0  0
 17 19  1  0  0  0  0
 19 20  1  0  0  0  0
 19 21  2  0  0  0  0
 21 22  1  0  0  0  0
 21 28  1  0  0  0  0
 22 23  1  0  0  0  0
 24 25  1  0  0  0  0
 24 31  2  0  0  0  0
 24 33  1  0  0  0  0
 26 27  1  0  0  0  0
 26 28  1  0  0  0  0
 26 33  2  0  0  0  0
 28 29  2  0  0  0  0
 29 30  1  0  0  0  0
 29 31  1  0  0  0  0
 31 32  1  0  0  0  0
 33 34  1  0  0  0  0
 35 36  1  0  0  0  0
 35 43  2  0  0  0  0
 36 37  1  0  0  0  0
 36 38  2  0  0  0  0
 38 39  1  0  0  0  0
 38 40  1  0  0  0  0
 40 41  2  0  0  0  0
 41 42  1  0  0  0  0
 41 43  1  0  0  0  0
 43 44  1  0  0  0  0
M  END
$$$$
bace1_merck_32_13m
  MOE2024           3D
bace1_merck_32_13m
 43 46  0  0  1  0  0  0  0  0999 V2000
   22.7570   11.7990   22.4270 C   0  0  0  0  0  0  0  0  0  0  0  0
   22.6810    9.4210   22.3170 N   0  0  0  0  0  0  0  0  0  0  0  0
   23.4132    8.7759   22.0053 H   0  0  0  0  0  0  0  0  0  0  0  0
   22.8440   12.9770   22.1420 O   0  0  0  0  0  0  0  0  0  0  0  0
   22.5140   10.6120   21.4190 C   0  0  3  0  0  0  0  0  0  0  0  0
   22.9280   11.2580   23.6800 N   0  0  0  0  0  0  0  0  0  0  0  0
   22.8380    9.8400   23.5830 C   0  0  0  0  0  0  0  0  0  0  0  0
   22.9660    9.0450   24.6440 N   0  0  0  0  0  0  0  0  0  0  0  0
   22.8669    8.0906   24.3683 H   0  0  0  0  0  0  0  0  0  0  0  0
   23.1650   12.0560   24.8900 C   0  0  0  0  0  0  0  0  0  0  0  0
   23.2663   11.3924   25.7488 H   0  0  0  0  0  0  0  0  0  0  0  0
   22.3248   12.7317   25.0500 H   0  0  0  0  0  0  0  0  0  0  0  0
   24.0798   12.6361   24.7692 H   0  0  0  0  0  0  0  0  0  0  0  0
   23.6230   10.6630   20.3520 C   0  0  0  0  0  0  0  0  0  0  0  0
   23.3320   10.9440   19.0190 C   0  0  0  0  0  0  0  0  0  0  0  0
   22.3320   11.0501   18.6871 H   0  0  0  0  0  0  0  0  0  0  0  0
   24.3490   11.1290   18.0950 C   0  0  0  0  0  0  0  0  0  0  0  0
   24.1142   11.3577   17.0864 H   0  0  0  0  0  0  0  0  0  0  0  0
   25.6700   11.0210   18.4890 C   0  0  0  0  0  0  0  0  0  0  0  0
   26.4446   11.1651   17.7801 H   0  0  0  0  0  0  0  0  0  0  0  0
   25.9930   10.7080   19.8130 C   0  0  0  0  0  0  0  0  0  0  0  0
   24.9570   10.5240   20.7360 C   0  0  0  0  0  0  0  0  0  0  0  0
   25.2059   10.3192   21.7464 H   0  0  0  0  0  0  0  0  0  0  0  0
   30.0681   10.3319   21.0083 C   0  0  0  0  0  0  0  0  0  0  0  0
   31.0792   10.2295   21.3075 H   0  0  0  0  0  0  0  0  0  0  0  0
   27.8315    9.4213   20.8740 C   0  0  0  0  0  0  0  0  0  0  0  0
   27.1593    8.6269   21.0675 H   0  0  0  0  0  0  0  0  0  0  0  0
   27.3873   10.5774   20.2257 C   0  0  0  0  0  0  0  0  0  0  0  0
   28.3020   11.6088   19.9760 C   0  0  0  0  0  0  0  0  0  0  0  0
   27.9744   12.4928   19.4911 H   0  0  0  0  0  0  0  0  0  0  0  0
   29.6331   11.4852   20.3644 C   0  0  0  0  0  0  0  0  0  0  0  0
   30.3155   12.2734   20.1699 H   0  0  0  0  0  0  0  0  0  0  0  0
   29.1642    9.3003   21.2632 C   0  0  0  0  0  0  0  0  0  0  0  0
   29.7013    7.8616   22.0654 Cl  0  0  0  0  0  0  0  0  0  0  0  0
   18.6496   10.5873   19.7592 C   0  0  0  0  0  0  0  0  0  0  0  0
   17.6762   10.5780   19.3343 H   0  0  0  0  0  0  0  0  0  0  0  0
   19.2478    9.4268   20.0063 N   0  0  0  0  0  0  0  0  0  0  0  0
   20.4593    9.4190   20.5394 C   0  0  0  0  0  0  0  0  0  0  0  0
   20.9164    8.4790   20.7256 H   0  0  0  0  0  0  0  0  0  0  0  0
   21.1032   10.6127   20.8379 C   0  0  0  0  0  0  0  0  0  0  0  0
   20.4313   11.7953   20.5507 C   0  0  0  0  0  0  0  0  0  0  0  0
   20.8622   12.7485   20.7359 H   0  0  0  0  0  0  0  0  0  0  0  0
   19.2202   11.7596   20.0183 N   0  0  0  0  0  0  0  0  0  0  0  0
  1  4  2  0  0  0  0
  1  5  1  0  0  0  0
  1  6  1  0  0  0  0
  2  3  1  0  0  0  0
  2  5  1  0  0  0  0
  2  7  1  0  0  0  0
  5 14  1  0  0  0  0
  5 40  1  0  0  0  0
  6  7  1  0  0  0  0
  6 10  1  0  0  0  0
  7  8  2  0  0  0  0
  8  9  1  0  0  0  0
 10 11  1  0  0  0  0
 10 12  1  0  0  0  0
 10 13  1  0  0  0  0
 14 15  1  0  0  0  0
 14 22  2  0  0  0  0
 15 16  1  0  0  0  0
 15 17  2  0  0  0  0
 17 18  1  0  0  0  0
 17 19  1  0  0  0  0
 19 20  1  0  0  0  0
 19 21  2  0  0  0  0
 21 22  1  0  0  0  0
 21 28  1  0  0  0  0
 22 23  1  0  0  0  0
 24 25  1  0  0  0  0
 24 31  2  0  0  0  0
 24 33  1  0  0  0  0
 26 27  1  0  0  0  0
 26 28  1  0  0  0  0
 26 33  2  0  0  0  0
 28 29  2  0  0  0  0
 29 30  1  0  0  0  0
 29 31  1  0  0  0  0
 31 32  1  0  0  0  0
 33 34  1  0  0  0  0
 35 36  1  0  0  0  0
 35 37  1  0  0  0  0
 35 43  2  0  0  0  0
 37 38  2  0  0  0  0
 38 39  1  0  0  0  0
 38 40  1  0  0  0  0
 40 41  2  0  0  0  0
 41 42  1  0  0  0  0
 41 43  1  0  0  0  0
M  END
$$$$
bace1_merck_33_13n
  MOE2024           3D
bace1_merck_33_13n
 43 46  0  0  1  0  0  0  0  0999 V2000
   22.7570   11.7990   22.4270 C   0  0  0  0  0  0  0  0  0  0  0  0
   22.6810    9.4210   22.3170 N   0  0  0  0  0  0  0  0  0  0  0  0
   23.4132    8.7759   22.0053 H   0  0  0  0  0  0  0  0  0  0  0  0
   22.8440   12.9770   22.1420 O   0  0  0  0  0  0  0  0  0  0  0  0
   22.5140   10.6120   21.4190 C   0  0  3  0  0  0  0  0  0  0  0  0
   22.9280   11.2580   23.6800 N   0  0  0  0  0  0  0  0  0  0  0  0
   22.8380    9.8400   23.5830 C   0  0  0  0  0  0  0  0  0  0  0  0
   22.9660    9.0450   24.6440 N   0  0  0  0  0  0  0  0  0  0  0  0
   22.8669    8.0906   24.3683 H   0  0  0  0  0  0  0  0  0  0  0  0
   23.1650   12.0560   24.8900 C   0  0  0  0  0  0  0  0  0  0  0  0
   23.2663   11.3924   25.7488 H   0  0  0  0  0  0  0  0  0  0  0  0
   22.3248   12.7317   25.0500 H   0  0  0  0  0  0  0  0  0  0  0  0
   24.0798   12.6361   24.7692 H   0  0  0  0  0  0  0  0  0  0  0  0
   23.6230   10.6630   20.3520 C   0  0  0  0  0  0  0  0  0  0  0  0
   23.3320   10.9440   19.0190 C   0  0  0  0  0  0  0  0  0  0  0  0
   22.3320   11.0501   18.6871 H   0  0  0  0  0  0  0  0  0  0  0  0
   24.3490   11.1290   18.0950 C   0  0  0  0  0  0  0  0  0  0  0  0
   24.1142   11.3577   17.0864 H   0  0  0  0  0  0  0  0  0  0  0  0
   25.6700   11.0210   18.4890 C   0  0  0  0  0  0  0  0  0  0  0  0
   26.4446   11.1651   17.7801 H   0  0  0  0  0  0  0  0  0  0  0  0
   25.9930   10.7080   19.8130 C   0  0  0  0  0  0  0  0  0  0  0  0
   24.9570   10.5240   20.7360 C   0  0  0  0  0  0  0  0  0  0  0  0
   25.2059   10.3192   21.7464 H   0  0  0  0  0  0  0  0  0  0  0  0
   30.0681   10.3319   21.0083 C   0  0  0  0  0  0  0  0  0  0  0  0
   31.0792   10.2295   21.3075 H   0  0  0  0  0  0  0  0  0  0  0  0
   27.8315    9.4213   20.8740 C   0  0  0  0  0  0  0  0  0  0  0  0
   27.1593    8.6269   21.0675 H   0  0  0  0  0  0  0  0  0  0  0  0
   27.3873   10.5774   20.2257 C   0  0  0  0  0  0  0  0  0  0  0  0
   28.3020   11.6088   19.9760 C   0  0  0  0  0  0  0  0  0  0  0  0
   27.9744   12.4928   19.4911 H   0  0  0  0  0  0  0  0  0  0  0  0
   29.6331   11.4852   20.3644 C   0  0  0  0  0  0  0  0  0  0  0  0
   30.3155   12.2734   20.1699 H   0  0  0  0  0  0  0  0  0  0  0  0
   29.1642    9.3003   21.2632 C   0  0  0  0  0  0  0  0  0  0  0  0
   29.7013    7.8616   22.0654 Cl  0  0  0  0  0  0  0  0  0  0  0  0
   18.5594   10.6760   19.8600 C   0  0  0  0  0  0  0  0  0  0  0  0
   17.5747   10.6849   19.4727 H   0  0  0  0  0  0  0  0  0  0  0  0
   19.4006    9.6046   19.6257 C   0  0  0  0  0  0  0  0  0  0  0  0
   19.0811    8.7685   19.0547 H   0  0  0  0  0  0  0  0  0  0  0  0
   20.6290    9.6122   20.1189 N   0  0  0  0  0  0  0  0  0  0  0  0
   21.0660   10.6550   20.8505 C   0  0  0  0  0  0  0  0  0  0  0  0
   20.2649   11.7040   21.0901 N   0  0  0  0  0  0  0  0  0  0  0  0
   19.0312   11.7351   20.6126 C   0  0  0  0  0  0  0  0  0  0  0  0
   18.4221   12.5797   20.8191 H   0  0  0  0  0  0  0  0  0  0  0  0
  1  4  2  0  0  0  0
  1  5  1  0  0  0  0
  1  6  1  0  0  0  0
  2  3  1  0  0  0  0
  2  5  1  0  0  0  0
  2  7  1  0  0  0  0
  5 14  1  0  0  0  0
  5 40  1  0  0  0  0
  6  7  1  0  0  0  0
  6 10  1  0  0  0  0
  7  8  2  0  0  0  0
  8  9  1  0  0  0  0
 10 11  1  0  0  0  0
 10 12  1  0  0  0  0
 10 13  1  0  0  0  0
 14 15  1  0  0  0  0
 14 22  2  0  0  0  0
 15 16  1  0  0  0  0
 15 17  2  0  0  0  0
 17 18  1  0  0  0  0
 17 19  1  0  0  0  0
 19 20  1  0  0  0  0
 19 21  2  0  0  0  0
 21 22  1  0  0  0  0
 21 28  1  0  0  0  0
 22 23  1  0  0  0  0
 24 25  1  0  0  0  0
 24 31  2  0  0  0  0
 24 33  1  0  0  0  0
 26 27  1  0  0  0  0
 26 28  1  0  0  0  0
 26 33  2  0  0  0  0
 28 29  2  0  0  0  0
 29 30  1  0  0  0  0
 29 31  1  0  0  0  0
 31 32  1  0  0  0  0
 33 34  1  0  0  0  0
 35 36  1  0  0  0  0
 35 37  1  0  0  0  0
 35 42  2  0  0  0  0
 37 38  1  0  0  0  0
 37 39  2  0  0  0  0
 39 40  1  0  0  0  0
 40 41  2  0  0  0  0
 41 42  1  0  0  0  0
 42 43  1  0  0  0  0
M  END
$$$$
bace1_merck_34_13o
  MOE2024           3D
bace1_merck_34_13o
 41 44  0  0  1  0  0  0  0  0999 V2000
   22.7570   11.7990   22.4270 C   0  0  0  0  0  0  0  0  0  0  0  0
   22.6810    9.4210   22.3170 N   0  0  0  0  0  0  0  0  0  0  0  0
   23.4132    8.7759   22.0053 H   0  0  0  0  0  0  0  0  0  0  0  0
   22.8440   12.9770   22.1420 O   0  0  0  0  0  0  0  0  0  0  0  0
   22.5140   10.6120   21.4190 C   0  0  3  0  0  0  0  0  0  0  0  0
   22.9280   11.2580   23.6800 N   0  0  0  0  0  0  0  0  0  0  0  0
   22.8380    9.8400   23.5830 C   0  0  0  0  0  0  0  0  0  0  0  0
   22.9660    9.0450   24.6440 N   0  0  0  0  0  0  0  0  0  0  0  0
   22.8669    8.0906   24.3683 H   0  0  0  0  0  0  0  0  0  0  0  0
   23.1650   12.0560   24.8900 C   0  0  0  0  0  0  0  0  0  0  0  0
   23.2663   11.3924   25.7488 H   0  0  0  0  0  0  0  0  0  0  0  0
   22.3248   12.7317   25.0500 H   0  0  0  0  0  0  0  0  0  0  0  0
   24.0798   12.6361   24.7692 H   0  0  0  0  0  0  0  0  0  0  0  0
   23.6230   10.6630   20.3520 C   0  0  0  0  0  0  0  0  0  0  0  0
   23.3320   10.9440   19.0190 C   0  0  0  0  0  0  0  0  0  0  0  0
   22.3320   11.0501   18.6871 H   0  0  0  0  0  0  0  0  0  0  0  0
   24.3490   11.1290   18.0950 C   0  0  0  0  0  0  0  0  0  0  0  0
   24.1142   11.3577   17.0864 H   0  0  0  0  0  0  0  0  0  0  0  0
   25.6700   11.0210   18.4890 C   0  0  0  0  0  0  0  0  0  0  0  0
   26.4446   11.1651   17.7801 H   0  0  0  0  0  0  0  0  0  0  0  0
   25.9930   10.7080   19.8130 C   0  0  0  0  0  0  0  0  0  0  0  0
   24.9570   10.5240   20.7360 C   0  0  0  0  0  0  0  0  0  0  0  0
   25.2059   10.3192   21.7464 H   0  0  0  0  0  0  0  0  0  0  0  0
   30.0681   10.3319   21.0083 C   0  0  0  0  0  0  0  0  0  0  0  0
   31.0792   10.2295   21.3075 H   0  0  0  0  0  0  0  0  0  0  0  0
   27.8315    9.4213   20.8740 C   0  0  0  0  0  0  0  0  0  0  0  0
   27.1593    8.6269   21.0675 H   0  0  0  0  0  0  0  0  0  0  0  0
   27.3873   10.5774   20.2257 C   0  0  0  0  0  0  0  0  0  0  0  0
   28.3020   11.6088   19.9760 C   0  0  0  0  0  0  0  0  0  0  0  0
   27.9744   12.4928   19.4911 H   0  0  0  0  0  0  0  0  0  0  0  0
   29.6331   11.4852   20.3644 C   0  0  0  0  0  0  0  0  0  0  0  0
   30.3155   12.2734   20.1699 H   0  0  0  0  0  0  0  0  0  0  0  0
   29.1642    9.3003   21.2632 C   0  0  0  0  0  0  0  0  0  0  0  0
   29.7013    7.8616   22.0654 Cl  0  0  0  0  0  0  0  0  0  0  0  0
   19.2699    9.9684   19.7665 C   0  0  0  0  0  0  0  0  0  0  0  0
   18.6953    9.3116   19.1631 H   0  0  0  0  0  0  0  0  0  0  0  0
   20.5588    9.6809   20.1030 N   0  0  0  0  0  0  0  0  0  0  0  0
   21.0800   10.6253   20.8543 C   0  0  0  0  0  0  0  0  0  0  0  0
   19.9911   11.9297   21.1866 S   0  0  0  0  0  0  0  0  0  0  0  0
   18.7949   11.1393   20.2597 C   0  0  0  0  0  0  0  0  0  0  0  0
   17.8309   11.5566   20.1263 H   0  0  0  0  0  0  0  0  0  0  0  0
  1  4  2  0  0  0  0
  1  5  1  0  0  0  0
  1  6  1  0  0  0  0
  2  3  1  0  0  0  0
  2  5  1  0  0  0  0
  2  7  1  0  0  0  0
  5 14  1  0  0  0  0
  5 38  1  0  0  0  0
  6  7  1  0  0  0  0
  6 10  1  0  0  0  0
  7  8  2  0  0  0  0
  8  9  1  0  0  0  0
 10 11  1  0  0  0  0
 10 12  1  0  0  0  0
 10 13  1  0  0  0  0
 14 15  1  0  0  0  0
 14 22  2  0  0  0  0
 15 16  1  0  0  0  0
 15 17  2  0  0  0  0
 17 18  1  0  0  0  0
 17 19  1  0  0  0  0
 19 20  1  0  0  0  0
 19 21  2  0  0  0  0
 21 22  1  0  0  0  0
 21 28  1  0  0  0  0
 22 23  1  0  0  0  0
 24 25  1  0  0  0  0
 24 31  2  0  0  0  0
 24 33  1  0  0  0  0
 26 27  1  0  0  0  0
 26 28  1  0  0  0  0
 26 33  2  0  0  0  0
 28 29  2  0  0  0  0
 29 30  1  0  0  0  0
 29 31  1  0  0  0  0
 31 32  1  0  0  0  0
 33 34  1  0  0  0  0
 35 36  1  0  0  0  0
 35 37  1  0  0  0  0
 35 40  2  0  0  0  0
 37 38  2  0  0  0  0
 38 39  1  0  0  0  0
 39 40  1  0  0  0  0
 40 41  1  0  0  0  0
M  END
$$$$
bace1_merck_35_17a
  MOE2024           3D
bace1_merck_35_17a
 42 45  0  0  1  0  0  0  0  0999 V2000
   29.5760    9.2230   23.1790 Cl  0  0  0  0  0  0  0  0  0  0  0  0
   22.6180   11.8520   22.5450 C   0  0  0  0  0  0  0  0  0  0  0  0
   22.6570    9.4730   22.4350 N   0  0  0  0  0  0  0  0  0  0  0  0
   22.7075    8.5120   22.1283 H   0  0  0  0  0  0  0  0  0  0  0  0
   22.6100   13.0400   22.2820 O   0  0  0  0  0  0  0  0  0  0  0  0
   22.4410   10.6730   21.5530 C   0  0  3  0  0  0  0  0  0  0  0  0
   22.8110   11.3120   23.7940 N   0  0  0  0  0  0  0  0  0  0  0  0
   22.7720    9.9090   23.7150 C   0  0  0  0  0  0  0  0  0  0  0  0
   22.9130    9.1540   24.7970 N   0  0  0  0  0  0  0  0  0  0  0  0
   23.0515    9.5857   25.6995 H   0  0  0  0  0  0  0  0  0  0  0  0
   23.0180   12.1080   25.0030 C   0  0  0  0  0  0  0  0  0  0  0  0
   23.1456   11.4439   25.8578 H   0  0  0  0  0  0  0  0  0  0  0  0
   22.1528   12.7502   25.1678 H   0  0  0  0  0  0  0  0  0  0  0  0
   23.9099   12.7233   24.8846 H   0  0  0  0  0  0  0  0  0  0  0  0
   23.5260   10.7360   20.4790 C   0  0  0  0  0  0  0  0  0  0  0  0
   29.5150   11.8200   20.1900 C   0  0  0  0  0  0  0  0  0  0  0  0
   30.6345   12.9162   19.4028 Cl  0  0  0  0  0  0  0  0  0  0  0  0
   23.1970   10.9390   19.1410 C   0  0  0  0  0  0  0  0  0  0  0  0
   22.1595   10.9876   18.8451 H   0  0  0  0  0  0  0  0  0  0  0  0
   24.1920   11.0790   18.1870 C   0  0  0  0  0  0  0  0  0  0  0  0
   23.9289   11.2162   17.1486 H   0  0  0  0  0  0  0  0  0  0  0  0
   25.5240   11.0430   18.5650 C   0  0  0  0  0  0  0  0  0  0  0  0
   26.2944   11.1706   17.8189 H   0  0  0  0  0  0  0  0  0  0  0  0
   25.8830   10.8430   19.9040 C   0  0  0  0  0  0  0  0  0  0  0  0
   24.8710   10.6640   20.8470 C   0  0  0  0  0  0  0  0  0  0  0  0
   25.1314   10.4669   21.8764 H   0  0  0  0  0  0  0  0  0  0  0  0
   27.3130   10.8470   20.3290 C   0  0  0  0  0  0  0  0  0  0  0  0
   28.2550   11.6940   19.7580 C   0  0  0  0  0  0  0  0  0  0  0  0
   27.9502   12.2895   18.9101 H   0  0  0  0  0  0  0  0  0  0  0  0
   29.8960   11.0820   21.2440 C   0  0  0  0  0  0  0  0  0  0  0  0
   30.8988   11.1874   21.6309 H   0  0  0  0  0  0  0  0  0  0  0  0
   27.7350   10.0450   21.3930 C   0  0  0  0  0  0  0  0  0  0  0  0
   27.0657    9.3312   21.8501 H   0  0  0  0  0  0  0  0  0  0  0  0
   29.0290   10.1910   21.8420 C   0  0  0  0  0  0  0  0  0  0  0  0
   20.0995    9.9399   21.5508 C   0  0  0  0  0  0  0  0  0  0  0  0
   19.1066   10.3586   21.4413 H   0  0  0  0  0  0  0  0  0  0  0  0
   20.2790    9.4513   22.5008 H   0  0  0  0  0  0  0  0  0  0  0  0
   21.2445   10.6681   20.9066 C   0  0  0  0  0  0  0  0  0  0  0  0
   21.0263   11.5789   20.3616 H   0  0  0  0  0  0  0  0  0  0  0  0
   20.7609    9.3686   20.3293 C   0  0  0  0  0  0  0  0  0  0  0  0
   21.3878    8.4934   20.4543 H   0  0  0  0  0  0  0  0  0  0  0  0
   20.2158    9.4003   19.3939 H   0  0  0  0  0  0  0  0  0  0  0  0
  1 34  1  0  0  0  0
  2  5  2  0  0  0  0
  2  6  1  0  0  0  0
  2  7  1  0  0  0  0
  3  4  1  0  0  0  0
  3  6  1  0  0  0  0
  3  8  1  0  0  0  0
  6 15  1  0  0  0  0
  6 38  1  0  0  0  0
  7  8  1  0  0  0  0
  7 11  1  0  0  0  0
  8  9  2  0  0  0  0
  9 10  1  0  0  0  0
 11 12  1  0  0  0  0
 11 13  1  0  0  0  0
 11 14  1  0  0  0  0
 15 18  1  0  0  0  0
 15 25  2  0  0  0  0
 16 17  1  0  0  0  0
 16 28  2  0  0  0  0
 16 30  1  0  0  0  0
 18 19  1  0  0  0  0
 18 20  2  0  0  0  0
 20 21  1  0  0  0  0
 20 22  1  0  0  0  0
 22 23  1  0  0  0  0
 22 24  2  0  0  0  0
 24 25  1  0  0  0  0
 24 27  1  0  0  0  0
 25 26  1  0  0  0  0
 27 28  1  0  0  0  0
 27 32  2  0  0  0  0
 28 29  1  0  0  0  0
 30 31  1  0  0  0  0
 30 34  2  0  0  0  0
 32 33  1  0  0  0  0
 32 34  1  0  0  0  0
 35 36  1  0  0  0  0
 35 37  1  0  0  0  0
 35 38  1  0  0  0  0
 35 40  1  0  0  0  0
 38 39  1  0  0  0  0
 38 40  1  0  0  0  0
 40 41  1  0  0  0  0
 40 42  1  0  0  0  0
M  END
$$$$
bace1_merck_36_17b
  MOE2024           3D
bace1_merck_36_17b
 46 49  0  0  1  0  0  0  0  0999 V2000
   29.4782    9.3961   22.9400 O   0  0  0  0  0  0  0  0  0  0  0  0
   28.5030    8.5012   23.4760 C   0  0  0  0  0  0  0  0  0  0  0  0
   28.9388    7.9426   24.3043 H   0  0  0  0  0  0  0  0  0  0  0  0
   28.1808    7.8074   22.6995 H   0  0  0  0  0  0  0  0  0  0  0  0
   27.6449    9.0705   23.8332 H   0  0  0  0  0  0  0  0  0  0  0  0
   22.6180   11.8520   22.5450 C   0  0  0  0  0  0  0  0  0  0  0  0
   22.6570    9.4730   22.4350 N   0  0  0  0  0  0  0  0  0  0  0  0
   22.7075    8.5120   22.1283 H   0  0  0  0  0  0  0  0  0  0  0  0
   22.6100   13.0400   22.2820 O   0  0  0  0  0  0  0  0  0  0  0  0
   22.4410   10.6730   21.5530 C   0  0  3  0  0  0  0  0  0  0  0  0
   22.8110   11.3120   23.7940 N   0  0  0  0  0  0  0  0  0  0  0  0
   22.7720    9.9090   23.7150 C   0  0  0  0  0  0  0  0  0  0  0  0
   22.9130    9.1540   24.7970 N   0  0  0  0  0  0  0  0  0  0  0  0
   23.0515    9.5857   25.6995 H   0  0  0  0  0  0  0  0  0  0  0  0
   23.0180   12.1080   25.0030 C   0  0  0  0  0  0  0  0  0  0  0  0
   23.1456   11.4439   25.8578 H   0  0  0  0  0  0  0  0  0  0  0  0
   22.1528   12.7502   25.1678 H   0  0  0  0  0  0  0  0  0  0  0  0
   23.9099   12.7233   24.8846 H   0  0  0  0  0  0  0  0  0  0  0  0
   23.5260   10.7360   20.4790 C   0  0  0  0  0  0  0  0  0  0  0  0
   29.5150   11.8200   20.1900 C   0  0  0  0  0  0  0  0  0  0  0  0
   30.2045   12.4952   19.7051 H   0  0  0  0  0  0  0  0  0  0  0  0
   23.1970   10.9390   19.1410 C   0  0  0  0  0  0  0  0  0  0  0  0
   22.1595   10.9876   18.8451 H   0  0  0  0  0  0  0  0  0  0  0  0
   24.1920   11.0790   18.1870 C   0  0  0  0  0  0  0  0  0  0  0  0
   23.9289   11.2162   17.1486 H   0  0  0  0  0  0  0  0  0  0  0  0
   25.5240   11.0430   18.5650 C   0  0  0  0  0  0  0  0  0  0  0  0
   26.2944   11.1706   17.8189 H   0  0  0  0  0  0  0  0  0  0  0  0
   25.8830   10.8430   19.9040 C   0  0  0  0  0  0  0  0  0  0  0  0
   24.8710   10.6640   20.8470 C   0  0  0  0  0  0  0  0  0  0  0  0
   25.1314   10.4669   21.8764 H   0  0  0  0  0  0  0  0  0  0  0  0
   27.3130   10.8470   20.3290 C   0  0  0  0  0  0  0  0  0  0  0  0
   28.2550   11.6940   19.7580 C   0  0  0  0  0  0  0  0  0  0  0  0
   27.9502   12.2895   18.9101 H   0  0  0  0  0  0  0  0  0  0  0  0
   29.8960   11.0820   21.2440 C   0  0  0  0  0  0  0  0  0  0  0  0
   30.8988   11.1874   21.6309 H   0  0  0  0  0  0  0  0  0  0  0  0
   27.7350   10.0450   21.3930 C   0  0  0  0  0  0  0  0  0  0  0  0
   27.0657    9.3312   21.8501 H   0  0  0  0  0  0  0  0  0  0  0  0
   29.0290   10.1910   21.8420 C   0  0  0  0  0  0  0  0  0  0  0  0
   20.0995    9.9399   21.5508 C   0  0  0  0  0  0  0  0  0  0  0  0
   19.1066   10.3586   21.4413 H   0  0  0  0  0  0  0  0  0  0  0  0
   20.2790    9.4513   22.5008 H   0  0  0  0  0  0  0  0  0  0  0  0
   21.2445   10.6681   20.9066 C   0  0  0  0  0  0  0  0  0  0  0  0
   21.0263   11.5789   20.3616 H   0  0  0  0  0  0  0  0  0  0  0  0
   20.7609    9.3686   20.3293 C   0  0  0  0  0  0  0  0  0  0  0  0
   21.3878    8.4934   20.4543 H   0  0  0  0  0  0  0  0  0  0  0  0
   20.2158    9.4003   19.3939 H   0  0  0  0  0  0  0  0  0  0  0  0
  1  2  1  0  0  0  0
  1 38  1  0  0  0  0
  2  3  1  0  0  0  0
  2  4  1  0  0  0  0
  2  5  1  0  0  0  0
  6  9  2  0  0  0  0
  6 10  1  0  0  0  0
  6 11  1  0  0  0  0
  7  8  1  0  0  0  0
  7 10  1  0  0  0  0
  7 12  1  0  0  0  0
 10 19  1  0  0  0  0
 10 42  1  0  0  0  0
 11 12  1  0  0  0  0
 11 15  1  0  0  0  0
 12 13  2  0  0  0  0
 13 14  1  0  0  0  0
 15 16  1  0  0  0  0
 15 17  1  0  0  0  0
 15 18  1  0  0  0  0
 19 22  1  0  0  0  0
 19 29  2  0  0  0  0
 20 21  1  0  0  0  0
 20 32  2  0  0  0  0
 20 34  1  0  0  0  0
 22 23  1  0  0  0  0
 22 24  2  0  0  0  0
 24 25  1  0  0  0  0
 24 26  1  0  0  0  0
 26 27  1  0  0  0  0
 26 28  2  0  0  0  0
 28 29  1  0  0  0  0
 28 31  1  0  0  0  0
 29 30  1  0  0  0  0
 31 32  1  0  0  0  0
 31 36  2  0  0  0  0
 32 33  1  0  0  0  0
 34 35  1  0  0  0  0
 34 38  2  0  0  0  0
 36 37  1  0  0  0  0
 36 38  1  0  0  0  0
 39 40  1  0  0  0  0
 39 41  1  0  0  0  0
 39 42  1  0  0  0  0
 39 44  1  0  0  0  0
 42 43  1  0  0  0  0
 42 44  1  0  0  0  0
 44 45  1  0  0  0  0
 44 46  1  0  0  0  0
M  END
$$$$
bace1_merck_37_17c
  MOE2024           3D
bace1_merck_37_17c
 43 46  0  0  1  0  0  0  0  0999 V2000
   22.6180   11.8520   22.5450 C   0  0  0  0  0  0  0  0  0  0  0  0
   22.6570    9.4730   22.4350 N   0  0  0  0  0  0  0  0  0  0  0  0
   22.7075    8.5120   22.1283 H   0  0  0  0  0  0  0  0  0  0  0  0
   22.6100   13.0400   22.2820 O   0  0  0  0  0  0  0  0  0  0  0  0
   22.4410   10.6730   21.5530 C   0  0  3  0  0  0  0  0  0  0  0  0
   22.8110   11.3120   23.7940 N   0  0  0  0  0  0  0  0  0  0  0  0
   22.7720    9.9090   23.7150 C   0  0  0  0  0  0  0  0  0  0  0  0
   22.9130    9.1540   24.7970 N   0  0  0  0  0  0  0  0  0  0  0  0
   23.0515    9.5857   25.6995 H   0  0  0  0  0  0  0  0  0  0  0  0
   23.0180   12.1080   25.0030 C   0  0  0  0  0  0  0  0  0  0  0  0
   23.1456   11.4439   25.8578 H   0  0  0  0  0  0  0  0  0  0  0  0
   22.1528   12.7502   25.1678 H   0  0  0  0  0  0  0  0  0  0  0  0
   23.9099   12.7233   24.8846 H   0  0  0  0  0  0  0  0  0  0  0  0
   23.5260   10.7360   20.4790 C   0  0  0  0  0  0  0  0  0  0  0  0
   29.5150   11.8200   20.1900 C   0  0  0  0  0  0  0  0  0  0  0  0
   30.2045   12.4952   19.7051 H   0  0  0  0  0  0  0  0  0  0  0  0
   23.1970   10.9390   19.1410 C   0  0  0  0  0  0  0  0  0  0  0  0
   22.1595   10.9876   18.8451 H   0  0  0  0  0  0  0  0  0  0  0  0
   24.1920   11.0790   18.1870 C   0  0  0  0  0  0  0  0  0  0  0  0
   23.9289   11.2162   17.1486 H   0  0  0  0  0  0  0  0  0  0  0  0
   25.5240   11.0430   18.5650 C   0  0  0  0  0  0  0  0  0  0  0  0
   26.2944   11.1706   17.8189 H   0  0  0  0  0  0  0  0  0  0  0  0
   25.8830   10.8430   19.9040 C   0  0  0  0  0  0  0  0  0  0  0  0
   24.8710   10.6640   20.8470 C   0  0  0  0  0  0  0  0  0  0  0  0
   25.1314   10.4669   21.8764 H   0  0  0  0  0  0  0  0  0  0  0  0
   27.3130   10.8470   20.3290 C   0  0  0  0  0  0  0  0  0  0  0  0
   28.2550   11.6940   19.7580 C   0  0  0  0  0  0  0  0  0  0  0  0
   27.9502   12.2895   18.9101 H   0  0  0  0  0  0  0  0  0  0  0  0
   29.8960   11.0820   21.2440 C   0  0  0  0  0  0  0  0  0  0  0  0
   30.8988   11.1874   21.6309 H   0  0  0  0  0  0  0  0  0  0  0  0
   27.7350   10.0450   21.3930 C   0  0  0  0  0  0  0  0  0  0  0  0
   27.0657    9.3312   21.8501 H   0  0  0  0  0  0  0  0  0  0  0  0
   29.0290   10.1910   21.8420 C   0  0  0  0  0  0  0  0  0  0  0  0
   20.0995    9.9399   21.5508 C   0  0  0  0  0  0  0  0  0  0  0  0
   19.1066   10.3586   21.4413 H   0  0  0  0  0  0  0  0  0  0  0  0
   20.2790    9.4513   22.5008 H   0  0  0  0  0  0  0  0  0  0  0  0
   21.2445   10.6681   20.9066 C   0  0  0  0  0  0  0  0  0  0  0  0
   21.0263   11.5789   20.3616 H   0  0  0  0  0  0  0  0  0  0  0  0
   20.7609    9.3686   20.3293 C   0  0  0  0  0  0  0  0  0  0  0  0
   21.3878    8.4934   20.4543 H   0  0  0  0  0  0  0  0  0  0  0  0
   20.2158    9.4003   19.3939 H   0  0  0  0  0  0  0  0  0  0  0  0
   29.4568    9.4339   22.8877 C   0  0  0  0  0  0  0  0  0  0  0  0
   29.8217    8.7882   23.7796 N   0  0  0  0  0  0  0  0  0  0  0  0
  1  4  2  0  0  0  0
  1  5  1  0  0  0  0
  1  6  1  0  0  0  0
  2  3  1  0  0  0  0
  2  5  1  0  0  0  0
  2  7  1  0  0  0  0
  5 14  1  0  0  0  0
  5 37  1  0  0  0  0
  6  7  1  0  0  0  0
  6 10  1  0  0  0  0
  7  8  2  0  0  0  0
  8  9  1  0  0  0  0
 10 11  1  0  0  0  0
 10 12  1  0  0  0  0
 10 13  1  0  0  0  0
 14 17  1  0  0  0  0
 14 24  2  0  0  0  0
 15 16  1  0  0  0  0
 15 27  2  0  0  0  0
 15 29  1  0  0  0  0
 17 18  1  0  0  0  0
 17 19  2  0  0  0  0
 19 20  1  0  0  0  0
 19 21  1  0  0  0  0
 21 22  1  0  0  0  0
 21 23  2  0  0  0  0
 23 24  1  0  0  0  0
 23 26  1  0  0  0  0
 24 25  1  0  0  0  0
 26 27  1  0  0  0  0
 26 31  2  0  0  0  0
 27 28  1  0  0  0  0
 29 30  1  0  0  0  0
 29 33  2  0  0  0  0
 31 32  1  0  0  0  0
 31 33  1  0  0  0  0
 33 42  1  0  0  0  0
 34 35  1  0  0  0  0
 34 36  1  0  0  0  0
 34 37  1  0  0  0  0
 34 39  1  0  0  0  0
 37 38  1  0  0  0  0
 37 39  1  0  0  0  0
 39 40  1  0  0  0  0
 39 41  1  0  0  0  0
 42 43  3  0  0  0  0
M  END
$$$$
bace1_merck_38_17d
  MOE2024           3D
bace1_merck_38_17d
 41 44  0  0  1  0  0  0  0  0999 V2000
   29.3296    9.6591   22.5767 H   0  0  0  0  0  0  0  0  0  0  0  0
   22.6180   11.8520   22.5450 C   0  0  0  0  0  0  0  0  0  0  0  0
   22.6570    9.4730   22.4350 N   0  0  0  0  0  0  0  0  0  0  0  0
   22.7075    8.5120   22.1283 H   0  0  0  0  0  0  0  0  0  0  0  0
   22.6100   13.0400   22.2820 O   0  0  0  0  0  0  0  0  0  0  0  0
   22.4410   10.6730   21.5530 C   0  0  3  0  0  0  0  0  0  0  0  0
   22.8110   11.3120   23.7940 N   0  0  0  0  0  0  0  0  0  0  0  0
   22.7720    9.9090   23.7150 C   0  0  0  0  0  0  0  0  0  0  0  0
   22.9130    9.1540   24.7970 N   0  0  0  0  0  0  0  0  0  0  0  0
   23.0515    9.5857   25.6995 H   0  0  0  0  0  0  0  0  0  0  0  0
   23.0180   12.1080   25.0030 C   0  0  0  0  0  0  0  0  0  0  0  0
   23.1456   11.4439   25.8578 H   0  0  0  0  0  0  0  0  0  0  0  0
   22.1528   12.7502   25.1678 H   0  0  0  0  0  0  0  0  0  0  0  0
   23.9099   12.7233   24.8846 H   0  0  0  0  0  0  0  0  0  0  0  0
   23.5260   10.7360   20.4790 C   0  0  0  0  0  0  0  0  0  0  0  0
   29.5150   11.8200   20.1900 N   0  0  0  0  0  0  0  0  0  0  0  0
   23.1970   10.9390   19.1410 C   0  0  0  0  0  0  0  0  0  0  0  0
   22.1595   10.9876   18.8451 H   0  0  0  0  0  0  0  0  0  0  0  0
   24.1920   11.0790   18.1870 C   0  0  0  0  0  0  0  0  0  0  0  0
   23.9289   11.2162   17.1486 H   0  0  0  0  0  0  0  0  0  0  0  0
   25.5240   11.0430   18.5650 C   0  0  0  0  0  0  0  0  0  0  0  0
   26.2944   11.1706   17.8189 H   0  0  0  0  0  0  0  0  0  0  0  0
   25.8830   10.8430   19.9040 C   0  0  0  0  0  0  0  0  0  0  0  0
   24.8710   10.6640   20.8470 C   0  0  0  0  0  0  0  0  0  0  0  0
   25.1314   10.4669   21.8764 H   0  0  0  0  0  0  0  0  0  0  0  0
   27.3130   10.8470   20.3290 C   0  0  0  0  0  0  0  0  0  0  0  0
   28.2550   11.6940   19.7580 C   0  0  0  0  0  0  0  0  0  0  0  0
   27.9502   12.2895   18.9101 H   0  0  0  0  0  0  0  0  0  0  0  0
   29.8960   11.0820   21.2440 C   0  0  0  0  0  0  0  0  0  0  0  0
   30.8988   11.1874   21.6309 H   0  0  0  0  0  0  0  0  0  0  0  0
   27.7350   10.0450   21.3930 C   0  0  0  0  0  0  0  0  0  0  0  0
   27.0657    9.3312   21.8501 H   0  0  0  0  0  0  0  0  0  0  0  0
   29.0290   10.1910   21.8420 C   0  0  0  0  0  0  0  0  0  0  0  0
   20.0995    9.9399   21.5508 C   0  0  0  0  0  0  0  0  0  0  0  0
   19.1066   10.3586   21.4413 H   0  0  0  0  0  0  0  0  0  0  0  0
   20.2790    9.4513   22.5008 H   0  0  0  0  0  0  0  0  0  0  0  0
   21.2445   10.6681   20.9066 C   0  0  0  0  0  0  0  0  0  0  0  0
   21.0263   11.5789   20.3616 H   0  0  0  0  0  0  0  0  0  0  0  0
   20.7609    9.3686   20.3293 C   0  0  0  0  0  0  0  0  0  0  0  0
   21.3878    8.4934   20.4543 H   0  0  0  0  0  0  0  0  0  0  0  0
   20.2158    9.4003   19.3939 H   0  0  0  0  0  0  0  0  0  0  0  0
  1 33  1  0  0  0  0
  2  5  2  0  0  0  0
  2  6  1  0  0  0  0
  2  7  1  0  0  0  0
  3  4  1  0  0  0  0
  3  6  1  0  0  0  0
  3  8  1  0  0  0  0
  6 15  1  0  0  0  0
  6 37  1  0  0  0  0
  7  8  1  0  0  0  0
  7 11  1  0  0  0  0
  8  9  2  0  0  0  0
  9 10  1  0  0  0  0
 11 12  1  0  0  0  0
 11 13  1  0  0  0  0
 11 14  1  0  0  0  0
 15 17  1  0  0  0  0
 15 24  2  0  0  0  0
 16 27  2  0  0  0  0
 16 29  1  0  0  0  0
 17 18  1  0  0  0  0
 17 19  2  0  0  0  0
 19 20  1  0  0  0  0
 19 21  1  0  0  0  0
 21 22  1  0  0  0  0
 21 23  2  0  0  0  0
 23 24  1  0  0  0  0
 23 26  1  0  0  0  0
 24 25  1  0  0  0  0
 26 27  1  0  0  0  0
 26 31  2  0  0  0  0
 27 28  1  0  0  0  0
 29 30  1  0  0  0  0
 29 33  2  0  0  0  0
 31 32  1  0  0  0  0
 31 33  1  0  0  0  0
 34 35  1  0  0  0  0
 34 36  1  0  0  0  0
 34 37  1  0  0  0  0
 34 39  1  0  0  0  0
 37 38  1  0  0  0  0
 37 39  1  0  0  0  0
 39 40  1  0  0  0  0
 39 41  1  0  0  0  0
M  END
$$$$
bace1_merck_39_17e
  MOE2024           3D
bace1_merck_39_17e
 45 48  0  0  1  0  0  0  0  0999 V2000
   29.4782    9.3961   22.9400 O   0  0  0  0  0  0  0  0  0  0  0  0
   28.5030    8.5012   23.4760 C   0  0  0  0  0  0  0  0  0  0  0  0
   28.9388    7.9426   24.3043 H   0  0  0  0  0  0  0  0  0  0  0  0
   28.1808    7.8074   22.6995 H   0  0  0  0  0  0  0  0  0  0  0  0
   27.6449    9.0705   23.8332 H   0  0  0  0  0  0  0  0  0  0  0  0
   22.6180   11.8520   22.5450 C   0  0  0  0  0  0  0  0  0  0  0  0
   22.6570    9.4730   22.4350 N   0  0  0  0  0  0  0  0  0  0  0  0
   22.7075    8.5120   22.1283 H   0  0  0  0  0  0  0  0  0  0  0  0
   22.6100   13.0400   22.2820 O   0  0  0  0  0  0  0  0  0  0  0  0
   22.4410   10.6730   21.5530 C   0  0  3  0  0  0  0  0  0  0  0  0
   22.8110   11.3120   23.7940 N   0  0  0  0  0  0  0  0  0  0  0  0
   22.7720    9.9090   23.7150 C   0  0  0  0  0  0  0  0  0  0  0  0
   22.9130    9.1540   24.7970 N   0  0  0  0  0  0  0  0  0  0  0  0
   23.0515    9.5857   25.6995 H   0  0  0  0  0  0  0  0  0  0  0  0
   23.0180   12.1080   25.0030 C   0  0  0  0  0  0  0  0  0  0  0  0
   23.1456   11.4439   25.8578 H   0  0  0  0  0  0  0  0  0  0  0  0
   22.1528   12.7502   25.1678 H   0  0  0  0  0  0  0  0  0  0  0  0
   23.9099   12.7233   24.8846 H   0  0  0  0  0  0  0  0  0  0  0  0
   23.5260   10.7360   20.4790 C   0  0  0  0  0  0  0  0  0  0  0  0
   29.5150   11.8200   20.1900 N   0  0  0  0  0  0  0  0  0  0  0  0
   23.1970   10.9390   19.1410 C   0  0  0  0  0  0  0  0  0  0  0  0
   22.1595   10.9876   18.8451 H   0  0  0  0  0  0  0  0  0  0  0  0
   24.1920   11.0790   18.1870 C   0  0  0  0  0  0  0  0  0  0  0  0
   23.9289   11.2162   17.1486 H   0  0  0  0  0  0  0  0  0  0  0  0
   25.5240   11.0430   18.5650 C   0  0  0  0  0  0  0  0  0  0  0  0
   26.2944   11.1706   17.8189 H   0  0  0  0  0  0  0  0  0  0  0  0
   25.8830   10.8430   19.9040 C   0  0  0  0  0  0  0  0  0  0  0  0
   24.8710   10.6640   20.8470 C   0  0  0  0  0  0  0  0  0  0  0  0
   25.1314   10.4669   21.8764 H   0  0  0  0  0  0  0  0  0  0  0  0
   27.3130   10.8470   20.3290 C   0  0  0  0  0  0  0  0  0  0  0  0
   28.2550   11.6940   19.7580 C   0  0  0  0  0  0  0  0  0  0  0  0
   27.9502   12.2895   18.9101 H   0  0  0  0  0  0  0  0  0  0  0  0
   29.8960   11.0820   21.2440 C   0  0  0  0  0  0  0  0  0  0  0  0
   30.8988   11.1874   21.6309 H   0  0  0  0  0  0  0  0  0  0  0  0
   27.7350   10.0450   21.3930 C   0  0  0  0  0  0  0  0  0  0  0  0
   27.0657    9.3312   21.8501 H   0  0  0  0  0  0  0  0  0  0  0  0
   29.0290   10.1910   21.8420 C   0  0  0  0  0  0  0  0  0  0  0  0
   20.0995    9.9399   21.5508 C   0  0  0  0  0  0  0  0  0  0  0  0
   19.1066   10.3586   21.4413 H   0  0  0  0  0  0  0  0  0  0  0  0
   20.2790    9.4513   22.5008 H   0  0  0  0  0  0  0  0  0  0  0  0
   21.2445   10.6681   20.9066 C   0  0  0  0  0  0  0  0  0  0  0  0
   21.0263   11.5789   20.3616 H   0  0  0  0  0  0  0  0  0  0  0  0
   20.7609    9.3686   20.3293 C   0  0  0  0  0  0  0  0  0  0  0  0
   21.3878    8.4934   20.4543 H   0  0  0  0  0  0  0  0  0  0  0  0
   20.2158    9.4003   19.3939 H   0  0  0  0  0  0  0  0  0  0  0  0
  1  2  1  0  0  0  0
  1 37  1  0  0  0  0
  2  3  1  0  0  0  0
  2  4  1  0  0  0  0
  2  5  1  0  0  0  0
  6  9  2  0  0  0  0
  6 10  1  0  0  0  0
  6 11  1  0  0  0  0
  7  8  1  0  0  0  0
  7 10  1  0  0  0  0
  7 12  1  0  0  0  0
 10 19  1  0  0  0  0
 10 41  1  0  0  0  0
 11 12  1  0  0  0  0
 11 15  1  0  0  0  0
 12 13  2  0  0  0  0
 13 14  1  0  0  0  0
 15 16  1  0  0  0  0
 15 17  1  0  0  0  0
 15 18  1  0  0  0  0
 19 21  1  0  0  0  0
 19 28  2  0  0  0  0
 20 31  2  0  0  0  0
 20 33  1  0  0  0  0
 21 22  1  0  0  0  0
 21 23  2  0  0  0  0
 23 24  1  0  0  0  0
 23 25  1  0  0  0  0
 25 26  1  0  0  0  0
 25 27  2  0  0  0  0
 27 28  1  0  0  0  0
 27 30  1  0  0  0  0
 28 29  1  0  0  0  0
 30 31  1  0  0  0  0
 30 35  2  0  0  0  0
 31 32  1  0  0  0  0
 33 34  1  0  0  0  0
 33 37  2  0  0  0  0
 35 36  1  0  0  0  0
 35 37  1  0  0  0  0
 38 39  1  0  0  0  0
 38 40  1  0  0  0  0
 38 41  1  0  0  0  0
 38 43  1  0  0  0  0
 41 42  1  0  0  0  0
 41 43  1  0  0  0  0
 43 44  1  0  0  0  0
 43 45  1  0  0  0  0
M  END
$$$$
bace1_merck_40_17f
  MOE2024           3D
bace1_merck_40_17f
 42 45  0  0  1  0  0  0  0  0999 V2000
   22.6180   11.8520   22.5450 C   0  0  0  0  0  0  0  0  0  0  0  0
   22.6570    9.4730   22.4350 N   0  0  0  0  0  0  0  0  0  0  0  0
   22.7075    8.5120   22.1283 H   0  0  0  0  0  0  0  0  0  0  0  0
   22.6100   13.0400   22.2820 O   0  0  0  0  0  0  0  0  0  0  0  0
   22.4410   10.6730   21.5530 C   0  0  3  0  0  0  0  0  0  0  0  0
   22.8110   11.3120   23.7940 N   0  0  0  0  0  0  0  0  0  0  0  0
   22.7720    9.9090   23.7150 C   0  0  0  0  0  0  0  0  0  0  0  0
   22.9130    9.1540   24.7970 N   0  0  0  0  0  0  0  0  0  0  0  0
   23.0515    9.5857   25.6995 H   0  0  0  0  0  0  0  0  0  0  0  0
   23.0180   12.1080   25.0030 C   0  0  0  0  0  0  0  0  0  0  0  0
   23.1456   11.4439   25.8578 H   0  0  0  0  0  0  0  0  0  0  0  0
   22.1528   12.7502   25.1678 H   0  0  0  0  0  0  0  0  0  0  0  0
   23.9099   12.7233   24.8846 H   0  0  0  0  0  0  0  0  0  0  0  0
   23.5260   10.7360   20.4790 C   0  0  0  0  0  0  0  0  0  0  0  0
   29.5150   11.8200   20.1900 N   0  0  0  0  0  0  0  0  0  0  0  0
   23.1970   10.9390   19.1410 C   0  0  0  0  0  0  0  0  0  0  0  0
   22.1595   10.9876   18.8451 H   0  0  0  0  0  0  0  0  0  0  0  0
   24.1920   11.0790   18.1870 C   0  0  0  0  0  0  0  0  0  0  0  0
   23.9289   11.2162   17.1486 H   0  0  0  0  0  0  0  0  0  0  0  0
   25.5240   11.0430   18.5650 C   0  0  0  0  0  0  0  0  0  0  0  0
   26.2944   11.1706   17.8189 H   0  0  0  0  0  0  0  0  0  0  0  0
   25.8830   10.8430   19.9040 C   0  0  0  0  0  0  0  0  0  0  0  0
   24.8710   10.6640   20.8470 C   0  0  0  0  0  0  0  0  0  0  0  0
   25.1314   10.4669   21.8764 H   0  0  0  0  0  0  0  0  0  0  0  0
   27.3130   10.8470   20.3290 C   0  0  0  0  0  0  0  0  0  0  0  0
   28.2550   11.6940   19.7580 C   0  0  0  0  0  0  0  0  0  0  0  0
   27.9502   12.2895   18.9101 H   0  0  0  0  0  0  0  0  0  0  0  0
   29.8960   11.0820   21.2440 C   0  0  0  0  0  0  0  0  0  0  0  0
   30.8988   11.1874   21.6309 H   0  0  0  0  0  0  0  0  0  0  0  0
   27.7350   10.0450   21.3930 C   0  0  0  0  0  0  0  0  0  0  0  0
   27.0657    9.3312   21.8501 H   0  0  0  0  0  0  0  0  0  0  0  0
   29.0290   10.1910   21.8420 C   0  0  0  0  0  0  0  0  0  0  0  0
   20.0995    9.9399   21.5508 C   0  0  0  0  0  0  0  0  0  0  0  0
   19.1066   10.3586   21.4413 H   0  0  0  0  0  0  0  0  0  0  0  0
   20.2790    9.4513   22.5008 H   0  0  0  0  0  0  0  0  0  0  0  0
   21.2445   10.6681   20.9066 C   0  0  0  0  0  0  0  0  0  0  0  0
   21.0263   11.5789   20.3616 H   0  0  0  0  0  0  0  0  0  0  0  0
   20.7609    9.3686   20.3293 C   0  0  0  0  0  0  0  0  0  0  0  0
   21.3878    8.4934   20.4543 H   0  0  0  0  0  0  0  0  0  0  0  0
   20.2158    9.4003   19.3939 H   0  0  0  0  0  0  0  0  0  0  0  0
   29.4568    9.4339   22.8877 C   0  0  0  0  0  0  0  0  0  0  0  0
   29.8217    8.7882   23.7796 N   0  0  0  0  0  0  0  0  0  0  0  0
  1  4  2  0  0  0  0
  1  5  1  0  0  0  0
  1  6  1  0  0  0  0
  2  3  1  0  0  0  0
  2  5  1  0  0  0  0
  2  7  1  0  0  0  0
  5 14  1  0  0  0  0
  5 36  1  0  0  0  0
  6  7  1  0  0  0  0
  6 10  1  0  0  0  0
  7  8  2  0  0  0  0
  8  9  1  0  0  0  0
 10 11  1  0  0  0  0
 10 12  1  0  0  0  0
 10 13  1  0  0  0  0
 14 16  1  0  0  0  0
 14 23  2  0  0  0  0
 15 26  2  0  0  0  0
 15 28  1  0  0  0  0
 16 17  1  0  0  0  0
 16 18  2  0  0  0  0
 18 19  1  0  0  0  0
 18 20  1  0  0  0  0
 20 21  1  0  0  0  0
 20 22  2  0  0  0  0
 22 23  1  0  0  0  0
 22 25  1  0  0  0  0
 23 24  1  0  0  0  0
 25 26  1  0  0  0  0
 25 30  2  0  0  0  0
 26 27  1  0  0  0  0
 28 29  1  0  0  0  0
 28 32  2  0  0  0  0
 30 31  1  0  0  0  0
 30 32  1  0  0  0  0
 32 41  1  0  0  0  0
 33 34  1  0  0  0  0
 33 35  1  0  0  0  0
 33 36  1  0  0  0  0
 33 38  1  0  0  0  0
 36 37  1  0  0  0  0
 36 38  1  0  0  0  0
 38 39  1  0  0  0  0
 38 40  1  0  0  0  0
 41 42  3  0  0  0  0
M  END
$$$$
bace1_merck_41_17g
  MOE2024           3D
bace1_merck_41_17g
 41 44  0  0  1  0  0  0  0  0999 V2000
   29.4650    9.4195   22.9077 F   0  0  0  0  0  0  0  0  0  0  0  0
   22.6180   11.8520   22.5450 C   0  0  0  0  0  0  0  0  0  0  0  0
   22.6570    9.4730   22.4350 N   0  0  0  0  0  0  0  0  0  0  0  0
   22.7075    8.5120   22.1283 H   0  0  0  0  0  0  0  0  0  0  0  0
   22.6100   13.0400   22.2820 O   0  0  0  0  0  0  0  0  0  0  0  0
   22.4410   10.6730   21.5530 C   0  0  3  0  0  0  0  0  0  0  0  0
   22.8110   11.3120   23.7940 N   0  0  0  0  0  0  0  0  0  0  0  0
   22.7720    9.9090   23.7150 C   0  0  0  0  0  0  0  0  0  0  0  0
   22.9130    9.1540   24.7970 N   0  0  0  0  0  0  0  0  0  0  0  0
   23.0515    9.5857   25.6995 H   0  0  0  0  0  0  0  0  0  0  0  0
   23.0180   12.1080   25.0030 C   0  0  0  0  0  0  0  0  0  0  0  0
   23.1456   11.4439   25.8578 H   0  0  0  0  0  0  0  0  0  0  0  0
   22.1528   12.7502   25.1678 H   0  0  0  0  0  0  0  0  0  0  0  0
   23.9099   12.7233   24.8846 H   0  0  0  0  0  0  0  0  0  0  0  0
   23.5260   10.7360   20.4790 C   0  0  0  0  0  0  0  0  0  0  0  0
   29.5150   11.8200   20.1900 N   0  0  0  0  0  0  0  0  0  0  0  0
   23.1970   10.9390   19.1410 C   0  0  0  0  0  0  0  0  0  0  0  0
   22.1595   10.9876   18.8451 H   0  0  0  0  0  0  0  0  0  0  0  0
   24.1920   11.0790   18.1870 C   0  0  0  0  0  0  0  0  0  0  0  0
   23.9289   11.2162   17.1486 H   0  0  0  0  0  0  0  0  0  0  0  0
   25.5240   11.0430   18.5650 C   0  0  0  0  0  0  0  0  0  0  0  0
   26.2944   11.1706   17.8189 H   0  0  0  0  0  0  0  0  0  0  0  0
   25.8830   10.8430   19.9040 C   0  0  0  0  0  0  0  0  0  0  0  0
   24.8710   10.6640   20.8470 C   0  0  0  0  0  0  0  0  0  0  0  0
   25.1314   10.4669   21.8764 H   0  0  0  0  0  0  0  0  0  0  0  0
   27.3130   10.8470   20.3290 C   0  0  0  0  0  0  0  0  0  0  0  0
   28.2550   11.6940   19.7580 C   0  0  0  0  0  0  0  0  0  0  0  0
   27.9502   12.2895   18.9101 H   0  0  0  0  0  0  0  0  0  0  0  0
   29.8960   11.0820   21.2440 C   0  0  0  0  0  0  0  0  0  0  0  0
   30.8988   11.1874   21.6309 H   0  0  0  0  0  0  0  0  0  0  0  0
   27.7350   10.0450   21.3930 C   0  0  0  0  0  0  0  0  0  0  0  0
   27.0657    9.3312   21.8501 H   0  0  0  0  0  0  0  0  0  0  0  0
   29.0290   10.1910   21.8420 C   0  0  0  0  0  0  0  0  0  0  0  0
   20.0995    9.9399   21.5508 C   0  0  0  0  0  0  0  0  0  0  0  0
   19.1066   10.3586   21.4413 H   0  0  0  0  0  0  0  0  0  0  0  0
   20.2790    9.4513   22.5008 H   0  0  0  0  0  0  0  0  0  0  0  0
   21.2445   10.6681   20.9066 C   0  0  0  0  0  0  0  0  0  0  0  0
   21.0263   11.5789   20.3616 H   0  0  0  0  0  0  0  0  0  0  0  0
   20.7609    9.3686   20.3293 C   0  0  0  0  0  0  0  0  0  0  0  0
   21.3878    8.4934   20.4543 H   0  0  0  0  0  0  0  0  0  0  0  0
   20.2158    9.4003   19.3939 H   0  0  0  0  0  0  0  0  0  0  0  0
  1 33  1  0  0  0  0
  2  5  2  0  0  0  0
  2  6  1  0  0  0  0
  2  7  1  0  0  0  0
  3  4  1  0  0  0  0
  3  6  1  0  0  0  0
  3  8  1  0  0  0  0
  6 15  1  0  0  0  0
  6 37  1  0  0  0  0
  7  8  1  0  0  0  0
  7 11  1  0  0  0  0
  8  9  2  0  0  0  0
  9 10  1  0  0  0  0
 11 12  1  0  0  0  0
 11 13  1  0  0  0  0
 11 14  1  0  0  0  0
 15 17  1  0  0  0  0
 15 24  2  0  0  0  0
 16 27  2  0  0  0  0
 16 29  1  0  0  0  0
 17 18  1  0  0  0  0
 17 19  2  0  0  0  0
 19 20  1  0  0  0  0
 19 21  1  0  0  0  0
 21 22  1  0  0  0  0
 21 23  2  0  0  0  0
 23 24  1  0  0  0  0
 23 26  1  0  0  0  0
 24 25  1  0  0  0  0
 26 27  1  0  0  0  0
 26 31  2  0  0  0  0
 27 28  1  0  0  0  0
 29 30  1  0  0  0  0
 29 33  2  0  0  0  0
 31 32  1  0  0  0  0
 31 33  1  0  0  0  0
 34 35  1  0  0  0  0
 34 36  1  0  0  0  0
 34 37  1  0  0  0  0
 34 39  1  0  0  0  0
 37 38  1  0  0  0  0
 37 39  1  0  0  0  0
 39 40  1  0  0  0  0
 39 41  1  0  0  0  0
M  END
$$$$
bace1_merck_42_17h_4djx
  MOE2024           3D
bace1_merck_42_17h_4djx
 41 44  0  0  1  0  0  0  0  0999 V2000
   29.5760    9.2230   23.1790 Cl  0  0  0  0  0  0  0  0  0  0  0  0
   22.6180   11.8520   22.5450 C   0  0  0  0  0  0  0  0  0  0  0  0
   22.6570    9.4730   22.4350 N   0  0  0  0  0  0  0  0  0  0  0  0
   22.7075    8.5120   22.1283 H   0  0  0  0  0  0  0  0  0  0  0  0
   22.6100   13.0400   22.2820 O   0  0  0  0  0  0  0  0  0  0  0  0
   22.4410   10.6730   21.5530 C   0  0  3  0  0  0  0  0  0  0  0  0
   22.8110   11.3120   23.7940 N   0  0  0  0  0  0  0  0  0  0  0  0
   22.7720    9.9090   23.7150 C   0  0  0  0  0  0  0  0  0  0  0  0
   22.9130    9.1540   24.7970 N   0  0  0  0  0  0  0  0  0  0  0  0
   23.0515    9.5857   25.6995 H   0  0  0  0  0  0  0  0  0  0  0  0
   23.0180   12.1080   25.0030 C   0  0  0  0  0  0  0  0  0  0  0  0
   23.1456   11.4439   25.8578 H   0  0  0  0  0  0  0  0  0  0  0  0
   22.1528   12.7502   25.1678 H   0  0  0  0  0  0  0  0  0  0  0  0
   23.9099   12.7233   24.8846 H   0  0  0  0  0  0  0  0  0  0  0  0
   23.5260   10.7360   20.4790 C   0  0  0  0  0  0  0  0  0  0  0  0
   29.5150   11.8200   20.1900 N   0  0  0  0  0  0  0  0  0  0  0  0
   20.9830   10.7550   21.0850 C   0  0  0  0  0  0  0  0  0  0  0  0
   21.2079   11.6980   20.5868 H   0  0  0  0  0  0  0  0  0  0  0  0
   23.1970   10.9390   19.1410 C   0  0  0  0  0  0  0  0  0  0  0  0
   22.1595   10.9876   18.8451 H   0  0  0  0  0  0  0  0  0  0  0  0
   24.1920   11.0790   18.1870 C   0  0  0  0  0  0  0  0  0  0  0  0
   23.9289   11.2162   17.1486 H   0  0  0  0  0  0  0  0  0  0  0  0
   25.5240   11.0430   18.5650 C   0  0  0  0  0  0  0  0  0  0  0  0
   26.2944   11.1706   17.8189 H   0  0  0  0  0  0  0  0  0  0  0  0
   25.8830   10.8430   19.9040 C   0  0  0  0  0  0  0  0  0  0  0  0
   24.8710   10.6640   20.8470 C   0  0  0  0  0  0  0  0  0  0  0  0
   25.1314   10.4669   21.8764 H   0  0  0  0  0  0  0  0  0  0  0  0
   27.3130   10.8470   20.3290 C   0  0  0  0  0  0  0  0  0  0  0  0
   28.2550   11.6940   19.7580 C   0  0  0  0  0  0  0  0  0  0  0  0
   27.9502   12.2895   18.9101 H   0  0  0  0  0  0  0  0  0  0  0  0
   29.8960   11.0820   21.2440 C   0  0  0  0  0  0  0  0  0  0  0  0
   30.8988   11.1874   21.6309 H   0  0  0  0  0  0  0  0  0  0  0  0
   27.7350   10.0450   21.3930 C   0  0  0  0  0  0  0  0  0  0  0  0
   27.0657    9.3312   21.8501 H   0  0  0  0  0  0  0  0  0  0  0  0
   20.2690    9.4780   20.7450 C   0  0  0  0  0  0  0  0  0  0  0  0
   19.6357    9.4262   19.8594 H   0  0  0  0  0  0  0  0  0  0  0  0
   20.7658    8.5192   20.8929 H   0  0  0  0  0  0  0  0  0  0  0  0
   19.8390   10.2890   21.9270 C   0  0  0  0  0  0  0  0  0  0  0  0
   20.0211    9.9192   22.9361 H   0  0  0  0  0  0  0  0  0  0  0  0
   18.8909   10.8263   21.9025 H   0  0  0  0  0  0  0  0  0  0  0  0
   29.0290   10.1910   21.8420 C   0  0  0  0  0  0  0  0  0  0  0  0
  1 41  1  0  0  0  0
  2  5  2  0  0  0  0
  2  6  1  0  0  0  0
  2  7  1  0  0  0  0
  3  4  1  0  0  0  0
  3  6  1  0  0  0  0
  3  8  1  0  0  0  0
  6 15  1  0  0  0  0
  6 17  1  0  0  0  0
  7  8  1  0  0  0  0
  7 11  1  0  0  0  0
  8  9  2  0  0  0  0
  9 10  1  0  0  0  0
 11 12  1  0  0  0  0
 11 13  1  0  0  0  0
 11 14  1  0  0  0  0
 15 19  1  0  0  0  0
 15 26  2  0  0  0  0
 16 29  2  0  0  0  0
 16 31  1  0  0  0  0
 17 18  1  0  0  0  0
 17 35  1  0  0  0  0
 17 38  1  0  0  0  0
 19 20  1  0  0  0  0
 19 21  2  0  0  0  0
 21 22  1  0  0  0  0
 21 23  1  0  0  0  0
 23 24  1  0  0  0  0
 23 25  2  0  0  0  0
 25 26  1  0  0  0  0
 25 28  1  0  0  0  0
 26 27  1  0  0  0  0
 28 29  1  0  0  0  0
 28 33  2  0  0  0  0
 29 30  1  0  0  0  0
 31 32  1  0  0  0  0
 31 41  2  0  0  0  0
 33 34  1  0  0  0  0
 33 41  1  0  0  0  0
 35 36  1  0  0  0  0
 35 37  1  0  0  0  0
 35 38  1  0  0  0  0
 38 39  1  0  0  0  0
 38 40  1  0  0  0  0
M  END
$$$$
bace1_merck_43_17i
  MOE2024           3D
bace1_merck_43_17i
 44 47  0  0  1  0  0  0  0  0999 V2000
   29.4782    9.3961   22.9400 C   0  0  0  0  0  0  0  0  0  0  0  0
   30.5176    9.6377   23.1621 H   0  0  0  0  0  0  0  0  0  0  0  0
   29.3979    8.3403   22.6810 H   0  0  0  0  0  0  0  0  0  0  0  0
   28.8620    9.6035   23.8148 H   0  0  0  0  0  0  0  0  0  0  0  0
   22.6180   11.8520   22.5450 C   0  0  0  0  0  0  0  0  0  0  0  0
   22.6570    9.4730   22.4350 N   0  0  0  0  0  0  0  0  0  0  0  0
   22.7075    8.5120   22.1283 H   0  0  0  0  0  0  0  0  0  0  0  0
   22.6100   13.0400   22.2820 O   0  0  0  0  0  0  0  0  0  0  0  0
   22.4410   10.6730   21.5530 C   0  0  3  0  0  0  0  0  0  0  0  0
   22.8110   11.3120   23.7940 N   0  0  0  0  0  0  0  0  0  0  0  0
   22.7720    9.9090   23.7150 C   0  0  0  0  0  0  0  0  0  0  0  0
   22.9130    9.1540   24.7970 N   0  0  0  0  0  0  0  0  0  0  0  0
   23.0515    9.5857   25.6995 H   0  0  0  0  0  0  0  0  0  0  0  0
   23.0180   12.1080   25.0030 C   0  0  0  0  0  0  0  0  0  0  0  0
   23.1456   11.4439   25.8578 H   0  0  0  0  0  0  0  0  0  0  0  0
   22.1528   12.7502   25.1678 H   0  0  0  0  0  0  0  0  0  0  0  0
   23.9099   12.7233   24.8846 H   0  0  0  0  0  0  0  0  0  0  0  0
   23.5260   10.7360   20.4790 C   0  0  0  0  0  0  0  0  0  0  0  0
   29.5150   11.8200   20.1900 N   0  0  0  0  0  0  0  0  0  0  0  0
   23.1970   10.9390   19.1410 C   0  0  0  0  0  0  0  0  0  0  0  0
   22.1595   10.9876   18.8451 H   0  0  0  0  0  0  0  0  0  0  0  0
   24.1920   11.0790   18.1870 C   0  0  0  0  0  0  0  0  0  0  0  0
   23.9289   11.2162   17.1486 H   0  0  0  0  0  0  0  0  0  0  0  0
   25.5240   11.0430   18.5650 C   0  0  0  0  0  0  0  0  0  0  0  0
   26.2944   11.1706   17.8189 H   0  0  0  0  0  0  0  0  0  0  0  0
   25.8830   10.8430   19.9040 C   0  0  0  0  0  0  0  0  0  0  0  0
   24.8710   10.6640   20.8470 C   0  0  0  0  0  0  0  0  0  0  0  0
   25.1314   10.4669   21.8764 H   0  0  0  0  0  0  0  0  0  0  0  0
   27.3130   10.8470   20.3290 C   0  0  0  0  0  0  0  0  0  0  0  0
   28.2550   11.6940   19.7580 C   0  0  0  0  0  0  0  0  0  0  0  0
   27.9502   12.2895   18.9101 H   0  0  0  0  0  0  0  0  0  0  0  0
   29.8960   11.0820   21.2440 C   0  0  0  0  0  0  0  0  0  0  0  0
   30.8988   11.1874   21.6309 H   0  0  0  0  0  0  0  0  0  0  0  0
   27.7350   10.0450   21.3930 C   0  0  0  0  0  0  0  0  0  0  0  0
   27.0657    9.3312   21.8501 H   0  0  0  0  0  0  0  0  0  0  0  0
   29.0290   10.1910   21.8420 C   0  0  0  0  0  0  0  0  0  0  0  0
   20.0995    9.9399   21.5508 C   0  0  0  0  0  0  0  0  0  0  0  0
   19.1066   10.3586   21.4413 H   0  0  0  0  0  0  0  0  0  0  0  0
   20.2790    9.4513   22.5008 H   0  0  0  0  0  0  0  0  0  0  0  0
   21.2445   10.6681   20.9066 C   0  0  0  0  0  0  0  0  0  0  0  0
   21.0263   11.5789   20.3616 H   0  0  0  0  0  0  0  0  0  0  0  0
   20.7609    9.3686   20.3293 C   0  0  0  0  0  0  0  0  0  0  0  0
   21.3878    8.4934   20.4543 H   0  0  0  0  0  0  0  0  0  0  0  0
   20.2158    9.4003   19.3939 H   0  0  0  0  0  0  0  0  0  0  0  0
  1  2  1  0  0  0  0
  1  3  1  0  0  0  0
  1  4  1  0  0  0  0
  1 36  1  0  0  0  0
  5  8  2  0  0  0  0
  5  9  1  0  0  0  0
  5 10  1  0  0  0  0
  6  7  1  0  0  0  0
  6  9  1  0  0  0  0
  6 11  1  0  0  0  0
  9 18  1  0  0  0  0
  9 40  1  0  0  0  0
 10 11  1  0  0  0  0
 10 14  1  0  0  0  0
 11 12  2  0  0  0  0
 12 13  1  0  0  0  0
 14 15  1  0  0  0  0
 14 16  1  0  0  0  0
 14 17  1  0  0  0  0
 18 20  1  0  0  0  0
 18 27  2  0  0  0  0
 19 30  2  0  0  0  0
 19 32  1  0  0  0  0
 20 21  1  0  0  0  0
 20 22  2  0  0  0  0
 22 23  1  0  0  0  0
 22 24  1  0  0  0  0
 24 25  1  0  0  0  0
 24 26  2  0  0  0  0
 26 27  1  0  0  0  0
 26 29  1  0  0  0  0
 27 28  1  0  0  0  0
 29 30  1  0  0  0  0
 29 34  2  0  0  0  0
 30 31  1  0  0  0  0
 32 33  1  0  0  0  0
 32 36  2  0  0  0  0
 34 35  1  0  0  0  0
 34 36  1  0  0  0  0
 37 38  1  0  0  0  0
 37 39  1  0  0  0  0
 37 40  1  0  0  0  0
 37 42  1  0  0  0  0
 40 41  1  0  0  0  0
 40 42  1  0  0  0  0
 42 43  1  0  0  0  0
 42 44  1  0  0  0  0
M  END
$$$$
bace1_merck_44_19
  MOE2024           3D
bace1_merck_44_19
 41 44  0  0  1  0  0  0  0  0999 V2000
   22.3650   10.6590   21.6490 C   0  0  3  0  0  0  0  0  0  0  0  0
   22.6490    9.4510   22.5210 N   0  0  0  0  0  0  0  0  0  0  0  0
   22.7011    8.4923   22.2075 H   0  0  0  0  0  0  0  0  0  0  0  0
   22.5320   13.0330   22.4010 O   0  0  0  0  0  0  0  0  0  0  0  0
   22.8180    9.8760   23.7750 C   0  0  0  0  0  0  0  0  0  0  0  0
   22.8560   11.2920   23.8760 N   0  0  0  0  0  0  0  0  0  0  0  0
   22.5760   11.8410   22.6460 C   0  0  0  0  0  0  0  0  0  0  0  0
   23.0220    9.1100   24.8500 N   0  0  0  0  0  0  0  0  0  0  0  0
   23.2057    9.5369   25.7468 H   0  0  0  0  0  0  0  0  0  0  0  0
   20.8750   10.7340   21.2050 C   0  0  0  0  0  0  0  0  0  0  0  0
   21.1026   11.6818   20.7171 H   0  0  0  0  0  0  0  0  0  0  0  0
   23.3960   10.7870   20.5240 C   0  0  0  0  0  0  0  0  0  0  0  0
   29.3360   11.9970   19.8230 N   0  0  0  0  0  0  0  0  0  0  0  0
   24.7600   10.7600   20.8230 C   0  0  0  0  0  0  0  0  0  0  0  0
   25.0808   10.6095   21.8432 H   0  0  0  0  0  0  0  0  0  0  0  0
   25.7150   10.9260   19.8140 C   0  0  0  0  0  0  0  0  0  0  0  0
   25.2760   11.0990   18.4960 C   0  0  0  0  0  0  0  0  0  0  0  0
   26.0005   11.2049   17.7021 H   0  0  0  0  0  0  0  0  0  0  0  0
   23.9260   11.1360   18.1980 C   0  0  0  0  0  0  0  0  0  0  0  0
   23.6028   11.2846   17.1783 H   0  0  0  0  0  0  0  0  0  0  0  0
   22.9890   10.9830   19.2040 C   0  0  0  0  0  0  0  0  0  0  0  0
   21.9360   11.0155   18.9662 H   0  0  0  0  0  0  0  0  0  0  0  0
   23.1120   12.0870   25.0820 C   0  0  0  0  0  0  0  0  0  0  0  0
   23.3073   11.4203   25.9220 H   0  0  0  0  0  0  0  0  0  0  0  0
   22.2406   12.7036   25.3025 H   0  0  0  0  0  0  0  0  0  0  0  0
   23.9783   12.7278   24.9177 H   0  0  0  0  0  0  0  0  0  0  0  0
   19.7510   10.2430   22.0790 C   0  0  0  0  0  0  0  0  0  0  0  0
   19.9676    9.8200   23.0599 H   0  0  0  0  0  0  0  0  0  0  0  0
   18.8115   10.7942   22.1204 H   0  0  0  0  0  0  0  0  0  0  0  0
   20.1250    9.4890   20.8370 C   0  0  0  0  0  0  0  0  0  0  0  0
   19.4556    9.4911   19.9767 H   0  0  0  0  0  0  0  0  0  0  0  0
   20.6117    8.5169   20.9163 H   0  0  0  0  0  0  0  0  0  0  0  0
   27.1680   10.9970   20.1620 C   0  0  0  0  0  0  0  0  0  0  0  0
   27.6960   10.1980   21.1810 C   0  0  0  0  0  0  0  0  0  0  0  0
   27.0632    9.4970   21.7050 H   0  0  0  0  0  0  0  0  0  0  0  0
   29.0440   10.3120   21.5160 C   0  0  0  0  0  0  0  0  0  0  0  0
   29.7444    9.3318   22.7901 Cl  0  0  0  0  0  0  0  0  0  0  0  0
   29.8210   11.2320   20.8050 C   0  0  0  0  0  0  0  0  0  0  0  0
   30.8653   11.3289   21.0626 H   0  0  0  0  0  0  0  0  0  0  0  0
   28.0380   11.8740   19.5190 C   0  0  0  0  0  0  0  0  0  0  0  0
   27.6416   12.4923   18.7272 H   0  0  0  0  0  0  0  0  0  0  0  0
  1  2  1  0  0  0  0
  1  7  1  0  0  0  0
  1 10  1  0  0  0  0
  1 12  1  0  0  0  0
  2  3  1  0  0  0  0
  2  5  1  0  0  0  0
  4  7  2  0  0  0  0
  5  6  1  0  0  0  0
  5  8  2  0  0  0  0
  6  7  1  0  0  0  0
  6 23  1  0  0  0  0
  8  9  1  0  0  0  0
 10 11  1  0  0  0  0
 10 27  1  0  0  0  0
 10 30  1  0  0  0  0
 12 14  1  0  0  0  0
 12 21  2  0  0  0  0
 13 38  2  0  0  0  0
 13 40  1  0  0  0  0
 14 15  1  0  0  0  0
 14 16  2  0  0  0  0
 16 17  1  0  0  0  0
 16 33  1  0  0  0  0
 17 18  1  0  0  0  0
 17 19  2  0  0  0  0
 19 20  1  0  0  0  0
 19 21  1  0  0  0  0
 21 22  1  0  0  0  0
 23 24  1  0  0  0  0
 23 25  1  0  0  0  0
 23 26  1  0  0  0  0
 27 28  1  0  0  0  0
 27 29  1  0  0  0  0
 27 30  1  0  0  0  0
 30 31  1  0  0  0  0
 30 32  1  0  0  0  0
 33 34  1  0  0  0  0
 33 40  2  0  0  0  0
 34 35  1  0  0  0  0
 34 36  2  0  0  0  0
 36 37  1  0  0  0  0
 36 38  1  0  0  0  0
 38 39  1  0  0  0  0
 40 41  1  0  0  0  0
M  END
$$$$
bace1_merck_45_24_4dj7
  MOE2024           3D
bace1_merck_45_24_4dj7
 46 49  0  0  1  0  0  0  0  0999 V2000
   22.3650   10.6590   21.6490 C   0  0  3  0  0  0  0  0  0  0  0  0
   22.6490    9.4510   22.5210 N   0  0  0  0  0  0  0  0  0  0  0  0
   22.7011    8.4923   22.2075 H   0  0  0  0  0  0  0  0  0  0  0  0
   22.5320   13.0330   22.4010 O   0  0  0  0  0  0  0  0  0  0  0  0
   22.8180    9.8760   23.7750 C   0  0  0  0  0  0  0  0  0  0  0  0
   22.8560   11.2920   23.8760 N   0  0  0  0  0  0  0  0  0  0  0  0
   22.5760   11.8410   22.6460 C   0  0  0  0  0  0  0  0  0  0  0  0
   23.0220    9.1100   24.8500 N   0  0  0  0  0  0  0  0  0  0  0  0
   23.2057    9.5369   25.7468 H   0  0  0  0  0  0  0  0  0  0  0  0
   20.8750   10.7340   21.2050 C   0  0  0  0  0  0  0  0  0  0  0  0
   21.1026   11.6818   20.7171 H   0  0  0  0  0  0  0  0  0  0  0  0
   23.3960   10.7870   20.5240 C   0  0  0  0  0  0  0  0  0  0  0  0
   29.3360   11.9970   19.8230 N   0  0  0  0  0  0  0  0  0  0  0  0
   24.7600   10.7600   20.8230 C   0  0  0  0  0  0  0  0  0  0  0  0
   25.0808   10.6095   21.8432 H   0  0  0  0  0  0  0  0  0  0  0  0
   25.7150   10.9260   19.8140 C   0  0  0  0  0  0  0  0  0  0  0  0
   25.2760   11.0990   18.4960 C   0  0  0  0  0  0  0  0  0  0  0  0
   26.0005   11.2049   17.7021 H   0  0  0  0  0  0  0  0  0  0  0  0
   23.9260   11.1360   18.1980 C   0  0  0  0  0  0  0  0  0  0  0  0
   23.6028   11.2846   17.1783 H   0  0  0  0  0  0  0  0  0  0  0  0
   22.9890   10.9830   19.2040 C   0  0  0  0  0  0  0  0  0  0  0  0
   21.9360   11.0155   18.9662 H   0  0  0  0  0  0  0  0  0  0  0  0
   23.1120   12.0870   25.0820 C   0  0  0  0  0  0  0  0  0  0  0  0
   23.3073   11.4203   25.9220 H   0  0  0  0  0  0  0  0  0  0  0  0
   22.2406   12.7036   25.3025 H   0  0  0  0  0  0  0  0  0  0  0  0
   23.9783   12.7278   24.9177 H   0  0  0  0  0  0  0  0  0  0  0  0
   19.7510   10.2430   22.0790 C   0  0  0  0  0  0  0  0  0  0  0  0
   19.9676    9.8200   23.0599 H   0  0  0  0  0  0  0  0  0  0  0  0
   18.8115   10.7942   22.1204 H   0  0  0  0  0  0  0  0  0  0  0  0
   20.1250    9.4890   20.8370 C   0  0  0  0  0  0  0  0  0  0  0  0
   19.4556    9.4911   19.9767 H   0  0  0  0  0  0  0  0  0  0  0  0
   20.6117    8.5169   20.9163 H   0  0  0  0  0  0  0  0  0  0  0  0
   27.1680   10.9970   20.1620 C   0  0  0  0  0  0  0  0  0  0  0  0
   27.6960   10.1980   21.1810 C   0  0  0  0  0  0  0  0  0  0  0  0
   27.0632    9.4970   21.7050 H   0  0  0  0  0  0  0  0  0  0  0  0
   29.0440   10.3120   21.5160 C   0  0  0  0  0  0  0  0  0  0  0  0
   29.8210   11.2320   20.8050 C   0  0  0  0  0  0  0  0  0  0  0  0
   30.8653   11.3289   21.0626 H   0  0  0  0  0  0  0  0  0  0  0  0
   28.0380   11.8740   19.5190 C   0  0  0  0  0  0  0  0  0  0  0  0
   27.6416   12.4923   18.7272 H   0  0  0  0  0  0  0  0  0  0  0  0
   29.6110    9.4990   22.5590 C   0  0  0  0  0  0  0  0  0  0  0  0
   30.1440    8.8670   23.4130 C   0  0  0  0  0  0  0  0  0  0  0  0
   30.8320    8.1130   24.4640 C   0  0  0  0  0  0  0  0  0  0  0  0
   30.2094    7.2747   24.7766 H   0  0  0  0  0  0  0  0  0  0  0  0
   31.0178    8.7656   25.3171 H   0  0  0  0  0  0  0  0  0  0  0  0
   31.7807    7.7378   24.0803 H   0  0  0  0  0  0  0  0  0  0  0  0
  1  2  1  0  0  0  0
  1  7  1  0  0  0  0
  1 10  1  0  0  0  0
  1 12  1  0  0  0  0
  2  3  1  0  0  0  0
  2  5  1  0  0  0  0
  4  7  2  0  0  0  0
  5  6  1  0  0  0  0
  5  8  2  0  0  0  0
  6  7  1  0  0  0  0
  6 23  1  0  0  0  0
  8  9  1  0  0  0  0
 10 11  1  0  0  0  0
 10 27  1  0  0  0  0
 10 30  1  0  0  0  0
 12 14  1  0  0  0  0
 12 21  2  0  0  0  0
 13 37  2  0  0  0  0
 13 39  1  0  0  0  0
 14 15  1  0  0  0  0
 14 16  2  0  0  0  0
 16 17  1  0  0  0  0
 16 33  1  0  0  0  0
 17 18  1  0  0  0  0
 17 19  2  0  0  0  0
 19 20  1  0  0  0  0
 19 21  1  0  0  0  0
 21 22  1  0  0  0  0
 23 24  1  0  0  0  0
 23 25  1  0  0  0  0
 23 26  1  0  0  0  0
 27 28  1  0  0  0  0
 27 29  1  0  0  0  0
 27 30  1  0  0  0  0
 30 31  1  0  0  0  0
 30 32  1  0  0  0  0
 33 34  1  0  0  0  0
 33 39  2  0  0  0  0
 34 35  1  0  0  0  0
 34 36  2  0  0  0  0
 36 37  1  0  0  0  0
 36 41  1  0  0  0  0
 37 38  1  0  0  0  0
 39 40  1  0  0  0  0
 41 42  3  0  0  0  0
 42 43  1  0  0  0  0
 43 44  1  0  0  0  0
 43 45  1  0  0  0  0
 43 46  1  0  0  0  0
M  END
$$$$
