bace1_merck_01_1_4dju_570
     RDKit          3D

 35 37  0  0  0  0  0  0  0  0999 V2000
   23.0330    9.9147   20.9789 C   0  0  0  0  0  0  0  0  0  0  0  0
   22.8853   11.7128   19.4642 N   0  0  0  0  0  0  0  0  0  0  0  0
   23.0785   12.7045   19.5728 H   0  0  0  0  0  0  0  0  0  0  0  0
   22.8826    9.1003   21.8969 O   0  0  0  0  0  0  0  0  0  0  0  0
   22.1350   11.1282   20.6266 C   0  0  0  0  0  0  0  0  0  0  0  0
   24.0335    9.9145   20.0277 N   0  0  0  0  0  0  0  0  0  0  0  0
   24.0225   10.9550   19.1167 C   0  0  0  0  0  0  0  0  0  0  0  0
   24.8407   11.2911   18.0581 N   0  0  0  0  0  0  0  0  0  0  0  0
   24.5001   12.1188   17.6150 H   0  0  0  0  0  0  0  0  0  0  0  0
   25.0973    8.9352   20.0256 C   0  0  0  0  0  0  0  0  0  0  0  0
   24.9818    8.1845   20.8387 H   0  0  0  0  0  0  0  0  0  0  0  0
   26.0806    9.4377   20.1592 H   0  0  0  0  0  0  0  0  0  0  0  0
   25.1077    8.3911   19.0557 H   0  0  0  0  0  0  0  0  0  0  0  0
   20.8446   10.6771   19.9798 C   0  0  0  0  0  0  0  0  0  0  0  0
   19.8487   11.6811   19.8229 C   0  0  0  0  0  0  0  0  0  0  0  0
   20.1051   12.7165   19.9970 H   0  0  0  0  0  0  0  0  0  0  0  0
   18.5416   11.3690   19.4396 C   0  0  0  0  0  0  0  0  0  0  0  0
   17.8092   12.1539   19.3170 H   0  0  0  0  0  0  0  0  0  0  0  0
   18.1839   10.0369   19.2194 C   0  0  0  0  0  0  0  0  0  0  0  0
   17.1755    9.7893   18.9213 H   0  0  0  0  0  0  0  0  0  0  0  0
   19.1293    9.0233   19.3948 C   0  0  0  0  0  0  0  0  0  0  0  0
   18.8494    7.9919   19.2360 H   0  0  0  0  0  0  0  0  0  0  0  0
   20.4353    9.3376   19.7780 C   0  0  0  0  0  0  0  0  0  0  0  0
   21.1312    8.5216   19.9014 H   0  0  0  0  0  0  0  0  0  0  0  0
   22.2316   12.0754   21.8029 C   0  0  0  0  0  0  0  0  0  0  0  0
   21.3717   11.7829   22.8935 C   0  0  0  0  0  0  0  0  0  0  0  0
   20.7709   10.8845   22.8780 H   0  0  0  0  0  0  0  0  0  0  0  0
   21.2776   12.6236   24.0036 C   0  0  0  0  0  0  0  0  0  0  0  0
   20.6266   12.3650   24.8263 H   0  0  0  0  0  0  0  0  0  0  0  0
   22.0199   13.8056   24.0424 C   0  0  0  0  0  0  0  0  0  0  0  0
   21.9477   14.4614   24.8978 H   0  0  0  0  0  0  0  0  0  0  0  0
   22.8442   14.1478   22.9669 C   0  0  0  0  0  0  0  0  0  0  0  0
   23.4062   15.0702   22.9911 H   0  0  0  0  0  0  0  0  0  0  0  0
   22.9486   13.2973   21.8630 C   0  0  0  0  0  0  0  0  0  0  0  0
   23.5937   13.5982   21.0516 H   0  0  0  0  0  0  0  0  0  0  0  0
  1  4  2  0
  1  5  1  0
  1  6  1  0
  2  3  1  0
  2  5  1  0
  2  7  1  0
  5 14  1  0
  5 25  1  0
  6  7  1  0
  6 10  1  0
  7  8  2  0
  8  9  1  0
 10 11  1  0
 10 12  1  0
 10 13  1  0
 14 15  2  0
 14 23  1  0
 15 16  1  0
 15 17  1  0
 17 18  1  0
 17 19  2  0
 19 20  1  0
 19 21  1  0
 21 22  1  0
 21 23  2  0
 23 24  1  0
 25 26  2  0
 25 34  1  0
 26 27  1  0
 26 28  1  0
 28 29  1  0
 28 30  2  0
 30 31  1  0
 30 32  1  0
 32 33  1  0
 32 34  2  0
 34 35  1  0
M  END
> <intraLJ>
25.839    

> <intraEL>
-0.771    

> <intraDihe>
42.443    

> <interLJ>
0.000     

> <interEJ>
0.000     

> <gridLJ>
-4.176    

> <gridEL>
0.000     

> <totalE>
63.335    

> <LGFE>
-4.176  

> <LE>
-0.209  

> <SMILES>
[H]/N=C1\NC(c2ccccc2)(c2ccccc2)C(=O)N1C

> <atom.dprop.GFE>
-0.0539 -0.4390 0.0000 -0.5000 0.1185 -0.1595 -0.1865 -1.6730 0.0000 -0.3380 0.0000 0.0000 0.0000 -0.1391 -0.2136 0.0000 -0.2482 0.0000 -0.2523 0.0000 -0.1850 0.0000 -0.1014 0.0000 0.0364 0.0506 0.0000 0.1189 0.0000 0.0030 0.0000 -0.0329 0.0000 0.0185 0.0000

> <atom.prop.CLASS>
GEHC IMIH NCLA FORO PRPC GEHC GEHC GENA NCLA PRPC NCLA NCLA NCLA BENC BENC NCLA BENC NCLA BENC NCLA BENC NCLA BENC NCLA BENC BENC NCLA BENC NCLA BENC NCLA BENC NCLA BENC NCLA

> <cluster_id>
1

> <rmsd_to_cluster_rep>
0.00    

> <ligRMSD>
4.19    

> <ligCOMD>
0.75    

$$$$
bace1_merck_02_4a_390
     RDKit          3D

 45 48  0  0  1  0  0  0  0  0999 V2000
   23.2093   13.2055   20.1731 C   0  0  0  0  0  0  0  0  0  0  0  0
   22.8702   11.8568   22.0640 N   0  0  0  0  0  0  0  0  0  0  0  0
   23.4241   11.0824   22.4209 H   0  0  0  0  0  0  0  0  0  0  0  0
   23.5102   13.5960   19.0391 O   0  0  0  0  0  0  0  0  0  0  0  0
   22.6453   11.8256   20.5784 C   0  0  1  0  0  0  0  0  0  0  0  0
   23.3985   13.8814   21.3632 N   0  0  0  0  0  0  0  0  0  0  0  0
   23.2480   13.1367   22.5221 C   0  0  0  0  0  0  0  0  0  0  0  0
   23.3966   13.4262   23.8629 N   0  0  0  0  0  0  0  0  0  0  0  0
   23.1901   12.6165   24.4099 H   0  0  0  0  0  0  0  0  0  0  0  0
   24.0017   15.1948   21.3547 C   0  0  0  0  0  0  0  0  0  0  0  0
   24.1289   15.6016   22.3825 H   0  0  0  0  0  0  0  0  0  0  0  0
   23.3599   15.9012   20.7840 H   0  0  0  0  0  0  0  0  0  0  0  0
   25.0032   15.1564   20.8716 H   0  0  0  0  0  0  0  0  0  0  0  0
   21.1331   11.8559   20.3715 C   0  0  0  0  0  0  0  0  0  0  0  0
   20.1853   11.3820   21.3203 C   0  0  0  0  0  0  0  0  0  0  0  0
   20.4912   11.1645   22.3329 H   0  0  0  0  0  0  0  0  0  0  0  0
   18.8485   11.1595   20.9780 C   0  0  0  0  0  0  0  0  0  0  0  0
   18.1530   10.8020   21.7235 H   0  0  0  0  0  0  0  0  0  0  0  0
   18.4106   11.3966   19.6731 C   0  0  0  0  0  0  0  0  0  0  0  0
   17.3764   11.2283   19.4101 H   0  0  0  0  0  0  0  0  0  0  0  0
   19.3155   11.8333   18.7051 C   0  0  0  0  0  0  0  0  0  0  0  0
   18.9849   11.9967   17.6894 H   0  0  0  0  0  0  0  0  0  0  0  0
   20.6516   12.0448   19.0474 C   0  0  0  0  0  0  0  0  0  0  0  0
   21.3253   12.3434   18.2585 H   0  0  0  0  0  0  0  0  0  0  0  0
   23.6169   10.8132   20.0354 C   0  0  0  0  0  0  0  0  0  0  0  0
   23.1186    9.8154   19.1655 C   0  0  0  0  0  0  0  0  0  0  0  0
   22.0639    9.7656   18.9398 H   0  0  0  0  0  0  0  0  0  0  0  0
   23.9666    8.9018   18.5347 C   0  0  0  0  0  0  0  0  0  0  0  0
   23.5611    8.1721   17.8487 H   0  0  0  0  0  0  0  0  0  0  0  0
   25.3397    8.9311   18.7938 C   0  0  0  0  0  0  0  0  0  0  0  0
   25.9857    8.2199   18.2981 H   0  0  0  0  0  0  0  0  0  0  0  0
   25.8687    9.8641   19.7055 C   0  0  0  0  0  0  0  0  0  0  0  0
   25.0022   10.7899   20.3088 C   0  0  0  0  0  0  0  0  0  0  0  0
   25.4067   11.5417   20.9722 H   0  0  0  0  0  0  0  0  0  0  0  0
   30.0241   10.1518   20.8290 C   0  0  0  0  0  0  0  0  0  0  0  0
   31.0515   10.2293   21.1532 H   0  0  0  0  0  0  0  0  0  0  0  0
   28.0712    8.7995   20.3597 C   0  0  0  0  0  0  0  0  0  0  0  0
   27.6036    7.8244   20.3421 H   0  0  0  0  0  0  0  0  0  0  0  0
   27.3396    9.9578   20.0105 C   0  0  0  0  0  0  0  0  0  0  0  0
   27.9849   11.2103   20.0470 C   0  0  0  0  0  0  0  0  0  0  0  0
   27.4470   12.1154   19.8012 H   0  0  0  0  0  0  0  0  0  0  0  0
   29.3199   11.3047   20.4601 C   0  0  0  0  0  0  0  0  0  0  0  0
   29.8035   12.2694   20.5036 H   0  0  0  0  0  0  0  0  0  0  0  0
   29.4038    8.8988   20.7727 C   0  0  0  0  0  0  0  0  0  0  0  0
   29.9502    8.0105   21.0538 H   0  0  0  0  0  0  0  0  0  0  0  0
  1  4  2  0
  1  5  1  0
  1  6  1  0
  2  3  1  0
  2  5  1  0
  2  7  1  0
  5 14  1  1
  5 25  1  0
  6  7  1  0
  6 10  1  0
  7  8  2  0
  8  9  1  0
 10 11  1  0
 10 12  1  0
 10 13  1  0
 14 15  2  0
 14 23  1  0
 15 16  1  0
 15 17  1  0
 17 18  1  0
 17 19  2  0
 19 20  1  0
 19 21  1  0
 21 22  1  0
 21 23  2  0
 23 24  1  0
 25 26  2  0
 25 33  1  0
 26 27  1  0
 26 28  1  0
 28 29  1  0
 28 30  2  0
 30 31  1  0
 30 32  1  0
 32 33  2  0
 32 39  1  0
 33 34  1  0
 35 36  1  0
 35 42  2  0
 35 44  1  0
 37 38  1  0
 37 39  1  0
 37 44  2  0
 39 40  2  0
 40 41  1  0
 40 42  1  0
 42 43  1  0
 44 45  1  0
M  END
> <intraLJ>
38.389    

> <intraEL>
-1.047    

> <intraDihe>
46.598    

> <interLJ>
0.000     

> <interEJ>
0.000     

> <gridLJ>
-3.133    

> <gridEL>
0.000     

> <totalE>
80.807    

> <LGFE>
-3.133  

> <LE>
-0.120  

> <SMILES>
[H]/N=C1\N[C@](c2ccccc2)(c2cccc(-c3ccccc3)c2)C(=O)N1C

> <atom.dprop.GFE>
-0.0057 -0.0480 0.0000 -0.5630 0.0336 -0.0017 -0.0619 0.0850 0.0000 0.1185 0.0000 0.0000 0.0000 -0.0139 0.0640 0.0000 -0.1971 0.0000 -0.2482 0.0000 -0.2498 0.0000 -0.2660 0.0000 -0.1648 -0.1109 0.0000 -0.1787 0.0000 -0.1692 0.0000 -0.2256 -0.1364 0.0000 -0.0215 0.0000 -0.1430 0.0000 -0.2520 -0.1929 0.0000 -0.1349 0.0000 -0.0489 0.0000

> <atom.prop.CLASS>
GEHC IMIH NCLA FORO PRPC GEHC GEHC GENA NCLA PRPC NCLA NCLA NCLA BENC BENC NCLA BENC NCLA BENC NCLA BENC NCLA BENC NCLA BENC BENC NCLA BENC NCLA BENC NCLA BENC BENC NCLA BENC NCLA BENC NCLA BENC BENC NCLA BENC NCLA BENC NCLA

> <cluster_id>
1

> <rmsd_to_cluster_rep>
0.00    

> <ligRMSD>
2.18    

> <ligCOMD>
0.96    

$$$$
bace1_merck_03_4b_2djv_762
     RDKit          3D

 49 52  0  0  1  0  0  0  0  0999 V2000
   22.8702   10.2373   18.5867 C   0  0  0  0  0  0  0  0  0  0  0  0
   23.0264   12.1947   19.8718 N   0  0  0  0  0  0  0  0  0  0  0  0
   23.6694   12.4319   20.6229 H   0  0  0  0  0  0  0  0  0  0  0  0
   22.8871    9.0520   18.2348 O   0  0  0  0  0  0  0  0  0  0  0  0
   22.4522   10.8087   19.9594 C   0  0  1  0  0  0  0  0  0  0  0  0
   23.3174   11.3266   17.8639 N   0  0  0  0  0  0  0  0  0  0  0  0
   29.5418   11.7176   20.9257 O   0  0  0  0  0  0  0  0  0  0  0  0
   23.4674   12.5102   18.5691 C   0  0  0  0  0  0  0  0  0  0  0  0
   23.9232   13.7673   18.2285 N   0  0  0  0  0  0  0  0  0  0  0  0
   23.8755   14.3721   19.0218 H   0  0  0  0  0  0  0  0  0  0  0  0
   23.8708   11.1319   16.5431 C   0  0  0  0  0  0  0  0  0  0  0  0
   24.2249   12.0868   16.0949 H   0  0  0  0  0  0  0  0  0  0  0  0
   23.0970   10.7037   15.8689 H   0  0  0  0  0  0  0  0  0  0  0  0
   24.7323   10.4292   16.5852 H   0  0  0  0  0  0  0  0  0  0  0  0
   20.9340   10.9706   19.9589 C   0  0  0  0  0  0  0  0  0  0  0  0
   20.2496   12.1151   20.4534 C   0  0  0  0  0  0  0  0  0  0  0  0
   20.7923   13.0247   20.6642 H   0  0  0  0  0  0  0  0  0  0  0  0
   18.8749   12.0988   20.7065 C   0  0  0  0  0  0  0  0  0  0  0  0
   18.3847   12.9862   21.0802 H   0  0  0  0  0  0  0  0  0  0  0  0
   18.1344   10.9366   20.4796 C   0  0  0  0  0  0  0  0  0  0  0  0
   17.0713   10.9258   20.6718 H   0  0  0  0  0  0  0  0  0  0  0  0
   18.7731    9.7842   20.0210 C   0  0  0  0  0  0  0  0  0  0  0  0
   18.2069    8.8772   19.8644 H   0  0  0  0  0  0  0  0  0  0  0  0
   20.1472    9.8005   19.7789 C   0  0  0  0  0  0  0  0  0  0  0  0
   20.6072    8.8759   19.4643 H   0  0  0  0  0  0  0  0  0  0  0  0
   23.2870   10.0779   20.9763 C   0  0  0  0  0  0  0  0  0  0  0  0
   22.6178    9.3426   21.9823 C   0  0  0  0  0  0  0  0  0  0  0  0
   21.5394    9.3483   22.0354 H   0  0  0  0  0  0  0  0  0  0  0  0
   23.3141    8.5535   22.9017 C   0  0  0  0  0  0  0  0  0  0  0  0
   22.7728    7.9775   23.6384 H   0  0  0  0  0  0  0  0  0  0  0  0
   24.7103    8.5116   22.8705 C   0  0  0  0  0  0  0  0  0  0  0  0
   25.2381    7.8983   23.5875 H   0  0  0  0  0  0  0  0  0  0  0  0
   25.4168    9.2792   21.9287 C   0  0  0  0  0  0  0  0  0  0  0  0
   24.6977   10.0466   20.9959 C   0  0  0  0  0  0  0  0  0  0  0  0
   25.2322   10.6029   20.2381 H   0  0  0  0  0  0  0  0  0  0  0  0
   29.6916    9.2753   21.3795 C   0  0  0  0  0  0  0  0  0  0  0  0
   30.7538    9.2274   21.2002 H   0  0  0  0  0  0  0  0  0  0  0  0
   27.5948   10.4682   21.5427 C   0  0  0  0  0  0  0  0  0  0  0  0
   27.0485   11.3980   21.4529 H   0  0  0  0  0  0  0  0  0  0  0  0
   26.9169    9.2717   21.8416 C   0  0  0  0  0  0  0  0  0  0  0  0
   27.6541    8.0788   21.9525 C   0  0  0  0  0  0  0  0  0  0  0  0
   27.1586    7.1426   22.1694 H   0  0  0  0  0  0  0  0  0  0  0  0
   29.0347    8.0839   21.7219 C   0  0  0  0  0  0  0  0  0  0  0  0
   29.5939    7.1622   21.7914 H   0  0  0  0  0  0  0  0  0  0  0  0
   28.9659   10.4848   21.2884 C   0  0  0  0  0  0  0  0  0  0  0  0
   30.8497   11.6805   20.3706 C   0  0  0  0  0  0  0  0  0  0  0  0
   31.1471   12.7139   20.0912 H   0  0  0  0  0  0  0  0  0  0  0  0
   30.8710   11.0512   19.4539 H   0  0  0  0  0  0  0  0  0  0  0  0
   31.5824   11.2962   21.1133 H   0  0  0  0  0  0  0  0  0  0  0  0
  1  4  2  0
  1  5  1  0
  1  6  1  0
  2  3  1  0
  2  5  1  0
  2  8  1  0
  5 15  1  1
  5 26  1  0
  6  8  1  0
  6 11  1  0
  7 45  1  0
  7 46  1  0
  8  9  2  0
  9 10  1  0
 11 12  1  0
 11 13  1  0
 11 14  1  0
 15 16  2  0
 15 24  1  0
 16 17  1  0
 16 18  1  0
 18 19  1  0
 18 20  2  0
 20 21  1  0
 20 22  1  0
 22 23  1  0
 22 24  2  0
 24 25  1  0
 26 27  2  0
 26 34  1  0
 27 28  1  0
 27 29  1  0
 29 30  1  0
 29 31  2  0
 31 32  1  0
 31 33  1  0
 33 34  2  0
 33 40  1  0
 34 35  1  0
 36 37  1  0
 36 43  2  0
 36 45  1  0
 38 39  1  0
 38 40  1  0
 38 45  2  0
 40 41  2  0
 41 42  1  0
 41 43  1  0
 43 44  1  0
 46 47  1  0
 46 48  1  0
 46 49  1  0
M  END
> <intraLJ>
40.678    

> <intraEL>
-1.542    

> <intraDihe>
46.612    

> <interLJ>
0.000     

> <interEJ>
0.000     

> <gridLJ>
-3.379    

> <gridEL>
0.000     

> <totalE>
82.368    

> <LGFE>
-3.379  

> <LE>
-0.121  

> <SMILES>
[H]/N=C1\N[C@](c2ccccc2)(c2cccc(-c3cccc(OC)c3)c2)C(=O)N1C

> <atom.dprop.GFE>
-0.2498 -0.0660 0.0000 -1.2110 -0.1029 -0.2461 -1.1130 -0.1715 -0.7310 0.0000 -0.1029 0.0000 0.0000 0.0000 -0.0822 -0.0725 0.0000 -0.0807 0.0000 -0.1971 0.0000 -0.2523 0.0000 -0.1391 0.0000 -0.0245 0.2346 0.0000 0.4035 0.0000 0.3215 0.0000 0.1820 -0.1024 0.0000 -0.0294 0.0000 0.1528 0.0000 0.2689 0.2867 0.0000 0.0748 0.0000 -0.0035 -0.3263 0.0000 0.0000 0.0000

> <atom.prop.CLASS>
GEHC IMIH NCLA FORO PRPC GEHC DMEO GEHC GENA NCLA PRPC NCLA NCLA NCLA BENC BENC NCLA BENC NCLA BENC NCLA BENC NCLA BENC NCLA BENC BENC NCLA BENC NCLA BENC NCLA BENC BENC NCLA BENC NCLA BENC NCLA BENC BENC NCLA BENC NCLA BENC PRPC NCLA NCLA NCLA

> <cluster_id>
1

> <rmsd_to_cluster_rep>
0.00    

> <ligRMSD>
3.95    

> <ligCOMD>
1.00    

$$$$
bace1_merck_04_4c_765
     RDKit          3D

 49 52  0  0  1  0  0  0  0  0999 V2000
   23.3965   12.7184   19.4270 C   0  0  0  0  0  0  0  0  0  0  0  0
   22.6042   11.9304   21.4914 N   0  0  0  0  0  0  0  0  0  0  0  0
   22.9566   11.1831   22.0838 H   0  0  0  0  0  0  0  0  0  0  0  0
   23.8846   12.7755   18.2922 O   0  0  0  0  0  0  0  0  0  0  0  0
   22.5378   11.5845   20.0303 C   0  0  1  0  0  0  0  0  0  0  0  0
   23.5858   13.6162   20.4599 N   0  0  0  0  0  0  0  0  0  0  0  0
   23.1712   13.2028   21.7158 C   0  0  0  0  0  0  0  0  0  0  0  0
   23.2289   13.7742   22.9704 N   0  0  0  0  0  0  0  0  0  0  0  0
   22.8124   13.1629   23.6414 H   0  0  0  0  0  0  0  0  0  0  0  0
   24.4264   14.7747   20.2600 C   0  0  0  0  0  0  0  0  0  0  0  0
   24.5210   15.3858   21.1850 H   0  0  0  0  0  0  0  0  0  0  0  0
   23.9944   15.4216   19.4652 H   0  0  0  0  0  0  0  0  0  0  0  0
   25.4469   14.4617   19.9465 H   0  0  0  0  0  0  0  0  0  0  0  0
   21.0908   11.8091   19.6000 C   0  0  0  0  0  0  0  0  0  0  0  0
   19.9673   11.6528   20.4581 C   0  0  0  0  0  0  0  0  0  0  0  0
   20.1058   11.5658   21.5256 H   0  0  0  0  0  0  0  0  0  0  0  0
   18.6636   11.5836   19.9591 C   0  0  0  0  0  0  0  0  0  0  0  0
   17.8314   11.4687   20.6384 H   0  0  0  0  0  0  0  0  0  0  0  0
   18.4350   11.6608   18.5835 C   0  0  0  0  0  0  0  0  0  0  0  0
   17.4268   11.6115   18.1986 H   0  0  0  0  0  0  0  0  0  0  0  0
   19.5126   11.7821   17.7056 C   0  0  0  0  0  0  0  0  0  0  0  0
   19.3409   11.8194   16.6394 H   0  0  0  0  0  0  0  0  0  0  0  0
   20.8138   11.8410   18.2062 C   0  0  0  0  0  0  0  0  0  0  0  0
   21.6196   11.8942   17.4898 H   0  0  0  0  0  0  0  0  0  0  0  0
   23.3480   10.3279   19.8661 C   0  0  0  0  0  0  0  0  0  0  0  0
   22.7306    9.2162   19.2461 C   0  0  0  0  0  0  0  0  0  0  0  0
   21.6954    9.2655   18.9433 H   0  0  0  0  0  0  0  0  0  0  0  0
   23.4410    8.0481   18.9592 C   0  0  0  0  0  0  0  0  0  0  0  0
   22.9520    7.2280   18.4535 H   0  0  0  0  0  0  0  0  0  0  0  0
   24.7838    7.9404   19.3300 C   0  0  0  0  0  0  0  0  0  0  0  0
   25.3233    7.0319   19.1011 H   0  0  0  0  0  0  0  0  0  0  0  0
   25.4167    8.9970   20.0113 C   0  0  0  0  0  0  0  0  0  0  0  0
   24.6931   10.1728   20.2651 C   0  0  0  0  0  0  0  0  0  0  0  0
   25.1865   11.0082   20.7423 H   0  0  0  0  0  0  0  0  0  0  0  0
   29.5011    8.9565   21.4272 C   0  0  0  0  0  0  0  0  0  0  0  0
   30.8038    9.0459   21.9542 O   0  0  0  0  0  0  0  0  0  0  0  0
   31.3064    7.9045   22.6404 C   0  0  0  0  0  0  0  0  0  0  0  0
   32.3322    8.1297   23.0026 H   0  0  0  0  0  0  0  0  0  0  0  0
   31.3628    7.0278   21.9588 H   0  0  0  0  0  0  0  0  0  0  0  0
   30.6719    7.6615   23.5209 H   0  0  0  0  0  0  0  0  0  0  0  0
   27.3944    7.8009   21.0424 C   0  0  0  0  0  0  0  0  0  0  0  0
   26.7882    6.9143   21.1711 H   0  0  0  0  0  0  0  0  0  0  0  0
   26.8643    8.9485   20.4155 C   0  0  0  0  0  0  0  0  0  0  0  0
   27.6817   10.0819   20.2636 C   0  0  0  0  0  0  0  0  0  0  0  0
   27.2995   10.9816   19.8009 H   0  0  0  0  0  0  0  0  0  0  0  0
   28.9843   10.0805   20.7691 C   0  0  0  0  0  0  0  0  0  0  0  0
   29.5949   10.9665   20.6696 H   0  0  0  0  0  0  0  0  0  0  0  0
   28.6980    7.8016   21.5499 C   0  0  0  0  0  0  0  0  0  0  0  0
   29.0416    6.9032   22.0375 H   0  0  0  0  0  0  0  0  0  0  0  0
  1  4  2  0
  1  5  1  0
  1  6  1  0
  2  3  1  0
  2  5  1  0
  2  7  1  0
  5 14  1  6
  5 25  1  0
  6  7  1  0
  6 10  1  0
  7  8  2  0
  8  9  1  0
 10 11  1  0
 10 12  1  0
 10 13  1  0
 14 15  2  0
 14 23  1  0
 15 16  1  0
 15 17  1  0
 17 18  1  0
 17 19  2  0
 19 20  1  0
 19 21  1  0
 21 22  1  0
 21 23  2  0
 23 24  1  0
 25 26  2  0
 25 33  1  0
 26 27  1  0
 26 28  1  0
 28 29  1  0
 28 30  2  0
 30 31  1  0
 30 32  1  0
 32 33  2  0
 32 43  1  0
 33 34  1  0
 35 36  1  0
 35 46  2  0
 35 48  1  0
 36 37  1  0
 37 38  1  0
 37 39  1  0
 37 40  1  0
 41 42  1  0
 41 43  1  0
 41 48  2  0
 43 44  2  0
 44 45  1  0
 44 46  1  0
 46 47  1  0
 48 49  1  0
M  END
> <intraLJ>
40.591    

> <intraEL>
-1.000    

> <intraDihe>
46.600    

> <interLJ>
0.000     

> <interEJ>
0.000     

> <gridLJ>
-2.488    

> <gridEL>
0.000     

> <totalE>
83.702    

> <LGFE>
-2.488  

> <LE>
-0.089  

> <SMILES>
[H]/N=C1\N[C@](c2ccccc2)(c2cccc(-c3ccc(OC)cc3)c2)C(=O)N1C

> <atom.dprop.GFE>
-0.1042 0.3790 0.0000 -0.9350 -0.1029 -0.0057 -0.0539 -0.2780 0.0000 0.0999 0.0000 0.0000 0.0000 -0.1381 -0.0721 0.0000 -0.2482 0.0000 -0.2234 0.0000 -0.2301 0.0000 -0.2660 0.0000 -0.1109 -0.0080 0.0000 0.1480 0.0000 0.0147 0.0000 -0.1869 -0.1024 0.0000 -0.0294 -0.1910 0.3087 0.0000 0.0000 0.0000 0.1104 0.0000 -0.0974 -0.0783 0.0000 -0.1550 0.0000 0.0681 0.0000

> <atom.prop.CLASS>
GEHC IMIH NCLA FORO PRPC GEHC GEHC GENA NCLA PRPC NCLA NCLA NCLA BENC BENC NCLA BENC NCLA BENC NCLA BENC NCLA BENC NCLA BENC BENC NCLA BENC NCLA BENC NCLA BENC BENC NCLA BENC DMEO PRPC NCLA NCLA NCLA BENC NCLA BENC BENC NCLA BENC NCLA BENC NCLA

> <cluster_id>
1

> <rmsd_to_cluster_rep>
0.00    

> <ligRMSD>
2.69    

> <ligCOMD>
0.98    

$$$$
bace1_merck_05_4d_1247
     RDKit          3D

 52 55  0  0  1  0  0  0  0  0999 V2000
   22.8772   13.2038   20.4647 C   0  0  0  0  0  0  0  0  0  0  0  0
   22.8822   11.7853   22.3343 N   0  0  0  0  0  0  0  0  0  0  0  0
   23.4721   10.9839   22.5430 H   0  0  0  0  0  0  0  0  0  0  0  0
   22.9612   13.6317   19.3076 O   0  0  0  0  0  0  0  0  0  0  0  0
   22.3608   11.8231   20.9255 C   0  0  1  0  0  0  0  0  0  0  0  0
   23.3200   13.8256   21.6163 N   0  0  0  0  0  0  0  0  0  0  0  0
   29.3514   10.2798   22.0360 O   0  0  0  0  0  0  0  0  0  0  0  0
   23.3828   13.0361   22.7536 C   0  0  0  0  0  0  0  0  0  0  0  0
   23.8064   13.2651   24.0467 N   0  0  0  0  0  0  0  0  0  0  0  0
   23.6900   12.4376   24.5936 H   0  0  0  0  0  0  0  0  0  0  0  0
   23.9541   15.1216   21.5323 C   0  0  0  0  0  0  0  0  0  0  0  0
   24.2938   15.4843   22.5278 H   0  0  0  0  0  0  0  0  0  0  0  0
   23.2373   15.8668   21.1230 H   0  0  0  0  0  0  0  0  0  0  0  0
   24.8396   15.0753   20.8604 H   0  0  0  0  0  0  0  0  0  0  0  0
   20.8395   11.9017   21.0315 C   0  0  0  0  0  0  0  0  0  0  0  0
   20.0837   11.3840   22.1195 C   0  0  0  0  0  0  0  0  0  0  0  0
   20.5774   11.0909   23.0342 H   0  0  0  0  0  0  0  0  0  0  0  0
   18.6988   11.2123   22.0387 C   0  0  0  0  0  0  0  0  0  0  0  0
   18.1539   10.8181   22.8843 H   0  0  0  0  0  0  0  0  0  0  0  0
   18.0184   11.5473   20.8659 C   0  0  0  0  0  0  0  0  0  0  0  0
   16.9476   11.4178   20.8053 H   0  0  0  0  0  0  0  0  0  0  0  0
   18.7267   12.0328   19.7663 C   0  0  0  0  0  0  0  0  0  0  0  0
   18.2064   12.2734   18.8503 H   0  0  0  0  0  0  0  0  0  0  0  0
   20.1106   12.1934   19.8465 C   0  0  0  0  0  0  0  0  0  0  0  0
   20.6235   12.5329   18.9593 H   0  0  0  0  0  0  0  0  0  0  0  0
   23.1680   10.8102   20.1588 C   0  0  0  0  0  0  0  0  0  0  0  0
   22.4749    9.8907   19.3377 C   0  0  0  0  0  0  0  0  0  0  0  0
   21.3958    9.8965   19.3037 H   0  0  0  0  0  0  0  0  0  0  0  0
   23.1512    8.9863   18.5147 C   0  0  0  0  0  0  0  0  0  0  0  0
   22.5940    8.3177   17.8744 H   0  0  0  0  0  0  0  0  0  0  0  0
   24.5481    8.9446   18.5216 C   0  0  0  0  0  0  0  0  0  0  0  0
   25.0597    8.2404   17.8806 H   0  0  0  0  0  0  0  0  0  0  0  0
   25.2748    9.7975   19.3707 C   0  0  0  0  0  0  0  0  0  0  0  0
   24.5763   10.7162   20.1735 C   0  0  0  0  0  0  0  0  0  0  0  0
   25.1280   11.4081   20.7949 H   0  0  0  0  0  0  0  0  0  0  0  0
   29.5749   10.0820   19.5589 C   0  0  0  0  0  0  0  0  0  0  0  0
   30.6462   10.1958   19.5684 H   0  0  0  0  0  0  0  0  0  0  0  0
   27.4286    9.9305   20.6579 C   0  0  0  0  0  0  0  0  0  0  0  0
   26.8546    9.9482   21.5752 H   0  0  0  0  0  0  0  0  0  0  0  0
   26.7777    9.8059   19.4165 C   0  0  0  0  0  0  0  0  0  0  0  0
   27.5515    9.7900   18.2418 C   0  0  0  0  0  0  0  0  0  0  0  0
   27.0793    9.7126   17.2723 H   0  0  0  0  0  0  0  0  0  0  0  0
   28.9426    9.9303   18.3153 C   0  0  0  0  0  0  0  0  0  0  0  0
   29.5303    9.9336   17.4089 H   0  0  0  0  0  0  0  0  0  0  0  0
   28.8118   10.0838   20.7482 C   0  0  0  0  0  0  0  0  0  0  0  0
   29.1834    9.2675   23.0214 C   0  0  0  0  0  0  0  0  0  0  0  0
   28.0882    9.0895   23.1082 H   0  0  0  0  0  0  0  0  0  0  0  0
   29.5279    9.5935   24.0255 H   0  0  0  0  0  0  0  0  0  0  0  0
   29.8446    7.9558   22.5914 C   0  0  0  0  0  0  0  0  0  0  0  0
   29.4613    7.6402   21.5972 H   0  0  0  0  0  0  0  0  0  0  0  0
   29.6220    7.1527   23.3257 H   0  0  0  0  0  0  0  0  0  0  0  0
   30.9464    8.0742   22.5215 H   0  0  0  0  0  0  0  0  0  0  0  0
  1  4  2  0
  1  5  1  0
  1  6  1  0
  2  3  1  0
  2  5  1  0
  2  8  1  0
  5 15  1  1
  5 26  1  0
  6  8  1  0
  6 11  1  0
  7 45  1  0
  7 46  1  0
  8  9  2  0
  9 10  1  0
 11 12  1  0
 11 13  1  0
 11 14  1  0
 15 16  2  0
 15 24  1  0
 16 17  1  0
 16 18  1  0
 18 19  1  0
 18 20  2  0
 20 21  1  0
 20 22  1  0
 22 23  1  0
 22 24  2  0
 24 25  1  0
 26 27  2  0
 26 34  1  0
 27 28  1  0
 27 29  1  0
 29 30  1  0
 29 31  2  0
 31 32  1  0
 31 33  1  0
 33 34  2  0
 33 40  1  0
 34 35  1  0
 36 37  1  0
 36 43  2  0
 36 45  1  0
 38 39  1  0
 38 40  1  0
 38 45  2  0
 40 41  2  0
 41 42  1  0
 41 43  1  0
 43 44  1  0
 46 47  1  0
 46 48  1  0
 46 49  1  0
 49 50  1  0
 49 51  1  0
 49 52  1  0
M  END
> <intraLJ>
39.228    

> <intraEL>
-2.324    

> <intraDihe>
52.277    

> <interLJ>
0.000     

> <interEJ>
0.000     

> <gridLJ>
-3.673    

> <gridEL>
0.000     

> <totalE>
85.509    

> <LGFE>
-3.673  

> <LE>
-0.127  

> <SMILES>
[H]/N=C1\N[C@](c2ccccc2)(c2cccc(-c3cccc(OCC)c3)c2)C(=O)N1C

> <atom.dprop.GFE>
-0.0057 -0.0480 0.0000 -0.2040 0.0336 -0.0017 -0.5330 -0.0619 0.0850 0.0000 0.1185 0.0000 0.0000 0.0000 -0.0725 0.2007 0.0000 -0.0930 0.0000 -0.1971 0.0000 -0.1222 0.0000 -0.1919 0.0000 -0.0553 -0.0489 0.0000 -0.1054 0.0000 -0.1787 0.0000 -0.2022 -0.1024 0.0000 -0.1844 0.0000 -0.0783 0.0000 -0.2256 -0.2355 0.0000 -0.0817 0.0000 -0.1216 -0.5022 0.0000 0.0000 -0.4575 0.0000 0.0000 0.0000

> <atom.prop.CLASS>
GEHC IMIH NCLA FORO PRPC GEHC DMEO GEHC GENA NCLA PRPC NCLA NCLA NCLA BENC BENC NCLA BENC NCLA BENC NCLA BENC NCLA BENC NCLA BENC BENC NCLA BENC NCLA BENC NCLA BENC BENC NCLA BENC NCLA BENC NCLA BENC BENC NCLA BENC NCLA BENC PRPC NCLA NCLA PRPC NCLA NCLA NCLA

> <cluster_id>
1

> <rmsd_to_cluster_rep>
0.00    

> <ligRMSD>
2.23    

> <ligCOMD>
0.95    

$$$$
bace1_merck_06_4e_1033
     RDKit          3D

 35 37  0  0  1  0  0  0  0  0999 V2000
   22.6608   12.6127   19.5547 C   0  0  0  0  0  0  0  0  0  0  0  0
   23.0312   10.3328   20.0206 N   0  0  0  0  0  0  0  0  0  0  0  0
   22.4754    9.5045   19.8302 H   0  0  0  0  0  0  0  0  0  0  0  0
   22.2572   13.7804   19.5101 O   0  0  0  0  0  0  0  0  0  0  0  0
   22.2209   11.4911   20.5285 C   0  0  1  0  0  0  0  0  0  0  0  0
   23.6276   12.0387   18.7536 N   0  0  0  0  0  0  0  0  0  0  0  0
   23.8848   10.6951   18.9581 C   0  0  0  0  0  0  0  0  0  0  0  0
   24.7490    9.7989   18.3641 N   0  0  0  0  0  0  0  0  0  0  0  0
   24.6614    8.9036   18.7978 H   0  0  0  0  0  0  0  0  0  0  0  0
   24.2803   12.7672   17.6887 C   0  0  0  0  0  0  0  0  0  0  0  0
   23.9421   13.8257   17.6322 H   0  0  0  0  0  0  0  0  0  0  0  0
   24.0672   12.2858   16.7088 H   0  0  0  0  0  0  0  0  0  0  0  0
   25.3806   12.7670   17.8503 H   0  0  0  0  0  0  0  0  0  0  0  0
   22.8006   11.7116   21.9074 C   0  0  0  0  0  0  0  0  0  0  0  0
   22.3208   10.8410   22.9252 C   0  0  0  0  0  0  0  0  0  0  0  0
   21.7281    9.9793   22.6526 H   0  0  0  0  0  0  0  0  0  0  0  0
   22.6003   11.0623   24.2764 C   0  0  0  0  0  0  0  0  0  0  0  0
   22.2320   10.3776   25.0267 H   0  0  0  0  0  0  0  0  0  0  0  0
   23.3549   12.1753   24.6542 C   0  0  0  0  0  0  0  0  0  0  0  0
   23.5759   12.3509   25.6969 H   0  0  0  0  0  0  0  0  0  0  0  0
   23.8156   13.0673   23.6826 C   0  0  0  0  0  0  0  0  0  0  0  0
   24.3893   13.9346   23.9760 H   0  0  0  0  0  0  0  0  0  0  0  0
   23.5350   12.8442   22.3325 C   0  0  0  0  0  0  0  0  0  0  0  0
   23.9111   13.5603   21.6176 H   0  0  0  0  0  0  0  0  0  0  0  0
   20.7631   11.2309   20.2331 C   0  0  0  0  0  0  0  0  0  0  0  0
   19.8411   12.1636   20.7719 C   0  0  0  0  0  0  0  0  0  0  0  0
   20.2090   13.0421   21.2840 H   0  0  0  0  0  0  0  0  0  0  0  0
   18.4602   11.9942   20.6631 C   0  0  0  0  0  0  0  0  0  0  0  0
   17.7875   12.7339   21.0724 H   0  0  0  0  0  0  0  0  0  0  0  0
   17.9520   10.8573   20.0301 C   0  0  0  0  0  0  0  0  0  0  0  0
   16.8851   10.7169   19.9441 H   0  0  0  0  0  0  0  0  0  0  0  0
   18.8457    9.9152   19.5321 C   0  0  0  0  0  0  0  0  0  0  0  0
   18.3696    8.7985   18.9297 F   0  0  0  0  0  0  0  0  0  0  0  0
   20.2201   10.0769   19.6215 C   0  0  0  0  0  0  0  0  0  0  0  0
   20.8759    9.3148   19.2292 H   0  0  0  0  0  0  0  0  0  0  0  0
  1  4  2  0
  1  5  1  0
  1  6  1  0
  2  3  1  0
  2  5  1  0
  2  7  1  0
  5 14  1  1
  5 25  1  0
  6  7  1  0
  6 10  1  0
  7  8  2  0
  8  9  1  0
 10 11  1  0
 10 12  1  0
 10 13  1  0
 14 15  2  0
 14 23  1  0
 15 16  1  0
 15 17  1  0
 17 18  1  0
 17 19  2  0
 19 20  1  0
 19 21  1  0
 21 22  1  0
 21 23  2  0
 23 24  1  0
 25 26  2  0
 25 34  1  0
 26 27  1  0
 26 28  1  0
 28 29  1  0
 28 30  2  0
 30 31  1  0
 30 32  1  0
 32 33  1  0
 32 34  2  0
 34 35  1  0
M  END
> <intraLJ>
24.939    

> <intraEL>
-2.238    

> <intraDihe>
42.049    

> <interLJ>
0.000     

> <interEJ>
0.000     

> <gridLJ>
-4.337    

> <gridEL>
0.000     

> <totalE>
60.413    

> <LGFE>
-4.337  

> <LE>
-0.207  

> <SMILES>
[H]/N=C1\N[C@](c2ccccc2)(c2cccc(F)c2)C(=O)N1C

> <atom.dprop.GFE>
0.0163 -0.8110 0.0000 -0.0110 0.1185 -0.1715 -0.2970 -1.4900 0.0000 -0.3433 0.0000 0.0000 0.0000 0.1505 0.2186 0.0000 0.3365 0.0000 0.2406 0.0000 0.0167 0.0000 0.0110 0.0000 -0.0721 -0.0807 0.0000 -0.0574 0.0000 -0.2482 0.0000 -0.2523 -1.4720 -0.1391 0.0000

> <atom.prop.CLASS>
GEHC IMIH NCLA FORO PRPC GEHC GEHC GENA NCLA PRPC NCLA NCLA NCLA BENC BENC NCLA BENC NCLA BENC NCLA BENC NCLA BENC NCLA BENC BENC NCLA BENC NCLA BENC NCLA BENC FLBX BENC NCLA

> <cluster_id>
1

> <rmsd_to_cluster_rep>
0.00    

> <ligRMSD>
5.06    

> <ligCOMD>
0.99    

$$$$
bace1_merck_07_4f_767
     RDKit          3D

 35 37  0  0  1  0  0  0  0  0999 V2000
   19.8708   11.2492   21.5766 C   0  0  0  0  0  0  0  0  0  0  0  0
   20.5044   10.3983   19.4727 N   0  0  0  0  0  0  0  0  0  0  0  0
   21.2219    9.7318   19.2028 H   0  0  0  0  0  0  0  0  0  0  0  0
   19.8008   11.8232   22.6693 O   0  0  0  0  0  0  0  0  0  0  0  0
   20.9704   11.3943   20.4963 C   0  0  1  0  0  0  0  0  0  0  0  0
   18.9627   10.3520   21.0509 N   0  0  0  0  0  0  0  0  0  0  0  0
   19.2788    9.7961   19.8243 C   0  0  0  0  0  0  0  0  0  0  0  0
   18.6425    8.8817   19.0106 N   0  0  0  0  0  0  0  0  0  0  0  0
   19.1783    8.7346   18.1807 H   0  0  0  0  0  0  0  0  0  0  0  0
   17.7860    9.9305   21.7774 C   0  0  0  0  0  0  0  0  0  0  0  0
   17.6910   10.4422   22.7609 H   0  0  0  0  0  0  0  0  0  0  0  0
   17.8224    8.8343   21.9627 H   0  0  0  0  0  0  0  0  0  0  0  0
   16.8740   10.1581   21.1831 H   0  0  0  0  0  0  0  0  0  0  0  0
   20.8362   12.7059   19.7569 C   0  0  0  0  0  0  0  0  0  0  0  0
   21.9130   13.0367   18.8879 C   0  0  0  0  0  0  0  0  0  0  0  0
   22.6600   12.2903   18.6581 H   0  0  0  0  0  0  0  0  0  0  0  0
   22.0323   14.3043   18.3119 C   0  0  0  0  0  0  0  0  0  0  0  0
   22.8550   14.5236   17.6468 H   0  0  0  0  0  0  0  0  0  0  0  0
   21.0856   15.2891   18.6031 C   0  0  0  0  0  0  0  0  0  0  0  0
   21.1714   16.2705   18.1598 H   0  0  0  0  0  0  0  0  0  0  0  0
   20.0321   15.0067   19.4763 C   0  0  0  0  0  0  0  0  0  0  0  0
   19.3064   15.7721   19.7106 H   0  0  0  0  0  0  0  0  0  0  0  0
   19.9146   13.7388   20.0509 C   0  0  0  0  0  0  0  0  0  0  0  0
   19.0854   13.5667   20.7203 H   0  0  0  0  0  0  0  0  0  0  0  0
   22.2424   10.8858   21.1297 C   0  0  0  0  0  0  0  0  0  0  0  0
   22.9398   11.8030   21.9579 C   0  0  0  0  0  0  0  0  0  0  0  0
   22.5085   12.7714   22.1686 H   0  0  0  0  0  0  0  0  0  0  0  0
   24.1793   11.4901   22.5203 C   0  0  0  0  0  0  0  0  0  0  0  0
   24.6806   12.2019   23.1600 H   0  0  0  0  0  0  0  0  0  0  0  0
   24.7728   10.2557   22.2452 C   0  0  0  0  0  0  0  0  0  0  0  0
   25.7316   10.0061   22.6742 H   0  0  0  0  0  0  0  0  0  0  0  0
   24.1257    9.3488   21.4012 C   0  0  0  0  0  0  0  0  0  0  0  0
   24.8458    7.8152   21.0323 Cl  0  0  0  0  0  0  0  0  0  0  0  0
   22.8842    9.6578   20.8513 C   0  0  0  0  0  0  0  0  0  0  0  0
   22.4158    8.9387   20.1963 H   0  0  0  0  0  0  0  0  0  0  0  0
  1  4  2  0
  1  5  1  0
  1  6  1  0
  2  3  1  0
  2  5  1  0
  2  7  1  0
  5 14  1  6
  5 25  1  0
  6  7  1  0
  6 10  1  0
  7  8  2  0
  8  9  1  0
 10 11  1  0
 10 12  1  0
 10 13  1  0
 14 15  2  0
 14 23  1  0
 15 16  1  0
 15 17  1  0
 17 18  1  0
 17 19  2  0
 19 20  1  0
 19 21  1  0
 21 22  1  0
 21 23  2  0
 23 24  1  0
 25 26  2  0
 25 34  1  0
 26 27  1  0
 26 28  1  0
 28 29  1  0
 28 30  2  0
 30 31  1  0
 30 32  1  0
 32 33  1  0
 32 34  2  0
 34 35  1  0
M  END
> <intraLJ>
25.481    

> <intraEL>
-2.076    

> <intraDihe>
42.321    

> <interLJ>
0.000     

> <interEJ>
0.000     

> <gridLJ>
-4.333    

> <gridEL>
0.000     

> <totalE>
61.393    

> <LGFE>
-4.333  

> <LE>
-0.206  

> <SMILES>
[H]/N=C1\N[C@](c2ccccc2)(c2cccc(Cl)c2)C(=O)N1C

> <atom.dprop.GFE>
0.2324 -0.9230 0.0000 -0.3380 -0.0057 -0.0256 -0.2128 -1.3450 0.0000 -0.2940 0.0000 0.0000 0.0000 -0.1919 -0.1608 0.0000 -0.0823 0.0000 0.0630 0.0000 0.2346 0.0000 -0.1234 0.0000 0.1505 0.0661 0.0000 0.1820 0.0000 0.3215 0.0000 0.1456 -2.0320 0.0058 0.0000

> <atom.prop.CLASS>
GEHC IMIH NCLA FORO PRPC GEHC GEHC GENA NCLA PRPC NCLA NCLA NCLA BENC BENC NCLA BENC NCLA BENC NCLA BENC NCLA BENC NCLA BENC BENC NCLA BENC NCLA BENC NCLA BENC CLBX BENC NCLA

> <cluster_id>
1

> <rmsd_to_cluster_rep>
0.00    

> <ligRMSD>
4.14    

> <ligCOMD>
1.26    

$$$$
bace1_merck_08_4g_737
     RDKit          3D

 38 40  0  0  1  0  0  0  0  0999 V2000
   23.0111    9.9303   20.9709 C   0  0  0  0  0  0  0  0  0  0  0  0
   22.8849   11.7576   19.4897 N   0  0  0  0  0  0  0  0  0  0  0  0
   23.0927   12.7440   19.6172 H   0  0  0  0  0  0  0  0  0  0  0  0
   22.8532    9.1038   21.8767 O   0  0  0  0  0  0  0  0  0  0  0  0
   22.1296   11.1611   20.6431 C   0  0  1  0  0  0  0  0  0  0  0  0
   24.0084    9.9334   20.0161 N   0  0  0  0  0  0  0  0  0  0  0  0
   24.0100   10.9908   19.1246 C   0  0  0  0  0  0  0  0  0  0  0  0
   24.8296   11.3356   18.0699 N   0  0  0  0  0  0  0  0  0  0  0  0
   24.4992   12.1764   17.6439 H   0  0  0  0  0  0  0  0  0  0  0  0
   25.0586    8.9402   19.9932 C   0  0  0  0  0  0  0  0  0  0  0  0
   24.9349    8.1765   20.7928 H   0  0  0  0  0  0  0  0  0  0  0  0
   26.0490    9.4269   20.1334 H   0  0  0  0  0  0  0  0  0  0  0  0
   25.0592    8.4140   19.0135 H   0  0  0  0  0  0  0  0  0  0  0  0
   20.8319   10.7415   19.9913 C   0  0  0  0  0  0  0  0  0  0  0  0
   19.8877   11.7828   19.7716 C   0  0  0  0  0  0  0  0  0  0  0  0
   20.1901   12.8119   19.9043 H   0  0  0  0  0  0  0  0  0  0  0  0
   18.5736   11.5150   19.3792 C   0  0  0  0  0  0  0  0  0  0  0  0
   17.8813   12.3268   19.2088 H   0  0  0  0  0  0  0  0  0  0  0  0
   18.1567   10.1924   19.2124 C   0  0  0  0  0  0  0  0  0  0  0  0
   17.1425    9.9789   18.9077 H   0  0  0  0  0  0  0  0  0  0  0  0
   19.0502    9.1448   19.4492 C   0  0  0  0  0  0  0  0  0  0  0  0
   18.7243    8.1214   19.3312 H   0  0  0  0  0  0  0  0  0  0  0  0
   20.3636    9.4147   19.8413 C   0  0  0  0  0  0  0  0  0  0  0  0
   21.0183    8.5739   20.0137 H   0  0  0  0  0  0  0  0  0  0  0  0
   22.2426   12.0824   21.8369 C   0  0  0  0  0  0  0  0  0  0  0  0
   21.3739   11.7947   22.9212 C   0  0  0  0  0  0  0  0  0  0  0  0
   20.7512   10.9117   22.8905 H   0  0  0  0  0  0  0  0  0  0  0  0
   21.2981   12.6208   24.0435 C   0  0  0  0  0  0  0  0  0  0  0  0
   20.6389   12.3661   24.8609 H   0  0  0  0  0  0  0  0  0  0  0  0
   22.0710   13.7825   24.1019 C   0  0  0  0  0  0  0  0  0  0  0  0
   22.0129   14.4243   24.9685 H   0  0  0  0  0  0  0  0  0  0  0  0
   22.9097   14.1205   23.0316 C   0  0  0  0  0  0  0  0  0  0  0  0
   23.7422   15.3633   23.0513 C   0  0  0  0  0  0  0  0  0  0  0  0
   23.5934   15.9088   24.0079 H   0  0  0  0  0  0  0  0  0  0  0  0
   23.4402   16.0125   22.2015 H   0  0  0  0  0  0  0  0  0  0  0  0
   24.8120   15.0805   22.9478 H   0  0  0  0  0  0  0  0  0  0  0  0
   22.9890   13.2823   21.9173 C   0  0  0  0  0  0  0  0  0  0  0  0
   23.6443   13.5775   21.1117 H   0  0  0  0  0  0  0  0  0  0  0  0
  1  4  2  0
  1  5  1  0
  1  6  1  0
  2  3  1  0
  2  5  1  0
  2  7  1  0
  5 14  1  6
  5 25  1  0
  6  7  1  0
  6 10  1  0
  7  8  2  0
  8  9  1  0
 10 11  1  0
 10 12  1  0
 10 13  1  0
 14 15  2  0
 14 23  1  0
 15 16  1  0
 15 17  1  0
 17 18  1  0
 17 19  2  0
 19 20  1  0
 19 21  1  0
 21 22  1  0
 21 23  2  0
 23 24  1  0
 25 26  2  0
 25 37  1  0
 26 27  1  0
 26 28  1  0
 28 29  1  0
 28 30  2  0
 30 31  1  0
 30 32  1  0
 32 33  1  0
 32 37  2  0
 33 34  1  0
 33 35  1  0
 33 36  1  0
 37 38  1  0
M  END
> <intraLJ>
26.361    

> <intraEL>
-1.933    

> <intraDihe>
42.325    

> <interLJ>
0.000     

> <interEJ>
0.000     

> <gridLJ>
-4.104    

> <gridEL>
0.000     

> <totalE>
62.648    

> <LGFE>
-4.104  

> <LE>
-0.195  

> <SMILES>
[H]/N=C1\N[C@](c2ccccc2)(c2cccc(C)c2)C(=O)N1C

> <atom.dprop.GFE>
-0.0539 -0.4390 0.0000 -0.5000 0.1185 -0.1595 -0.1865 -1.6730 0.0000 -0.3380 0.0000 0.0000 0.0000 -0.1391 -0.1919 0.0000 -0.2482 0.0000 -0.2523 0.0000 -0.1850 0.0000 -0.1014 0.0000 0.0364 0.0506 0.0000 0.1189 0.0000 0.0436 0.0000 0.0063 -0.0293 0.0000 0.0000 0.0000 0.0185 0.0000

> <atom.prop.CLASS>
GEHC IMIH NCLA FORO PRPC GEHC GEHC GENA NCLA PRPC NCLA NCLA NCLA BENC BENC NCLA BENC NCLA BENC NCLA BENC NCLA BENC NCLA BENC BENC NCLA BENC NCLA BENC NCLA BENC PRPC NCLA NCLA NCLA BENC NCLA

> <cluster_id>
1

> <rmsd_to_cluster_rep>
0.00    

> <ligRMSD>
4.41    

> <ligCOMD>
0.80    

$$$$
bace1_merck_09_4h_33
     RDKit          3D

 36 38  0  0  1  0  0  0  0  0999 V2000
   21.3906   11.7221   18.7298 C   0  0  0  0  0  0  0  0  0  0  0  0
   20.7790    9.8684   20.0483 N   0  0  0  0  0  0  0  0  0  0  0  0
   20.3209    9.8050   20.9529 H   0  0  0  0  0  0  0  0  0  0  0  0
   21.9039   12.7401   18.2519 O   0  0  0  0  0  0  0  0  0  0  0  0
   21.8305   10.9398   19.9914 C   0  0  1  0  0  0  0  0  0  0  0  0
   20.3062   11.0274   18.2321 N   0  0  0  0  0  0  0  0  0  0  0  0
   19.8763    9.9381   18.9680 C   0  0  0  0  0  0  0  0  0  0  0  0
   18.8491    9.0322   18.8033 N   0  0  0  0  0  0  0  0  0  0  0  0
   18.8630    8.3639   19.5453 H   0  0  0  0  0  0  0  0  0  0  0  0
   19.5881   11.4583   17.0539 C   0  0  0  0  0  0  0  0  0  0  0  0
   20.0371   12.3668   16.5946 H   0  0  0  0  0  0  0  0  0  0  0  0
   18.5316   11.6906   17.3129 H   0  0  0  0  0  0  0  0  0  0  0  0
   19.5951   10.6492   16.2909 H   0  0  0  0  0  0  0  0  0  0  0  0
   23.0850   10.1405   19.7266 C   0  0  0  0  0  0  0  0  0  0  0  0
   23.6682    9.5151   20.8637 C   0  0  0  0  0  0  0  0  0  0  0  0
   23.1191    9.4837   21.7941 H   0  0  0  0  0  0  0  0  0  0  0  0
   24.9355    8.9287   20.8128 C   0  0  0  0  0  0  0  0  0  0  0  0
   25.3488    8.4509   21.6893 H   0  0  0  0  0  0  0  0  0  0  0  0
   25.6683    8.9663   19.6244 C   0  0  0  0  0  0  0  0  0  0  0  0
   26.6480    8.5134   19.5781 H   0  0  0  0  0  0  0  0  0  0  0  0
   25.1372    9.5987   18.4974 C   0  0  0  0  0  0  0  0  0  0  0  0
   25.7091    9.6375   17.5815 H   0  0  0  0  0  0  0  0  0  0  0  0
   23.8700   10.1843   18.5504 C   0  0  0  0  0  0  0  0  0  0  0  0
   23.5005   10.6623   17.6558 H   0  0  0  0  0  0  0  0  0  0  0  0
   21.6363   11.8877   21.1534 C   0  0  0  0  0  0  0  0  0  0  0  0
   22.6420   12.8745   21.3205 C   0  0  0  0  0  0  0  0  0  0  0  0
   23.4323   12.9646   20.5884 H   0  0  0  0  0  0  0  0  0  0  0  0
   22.6444   13.7480   22.4089 C   0  0  0  0  0  0  0  0  0  0  0  0
   23.4152   14.5001   22.4987 H   0  0  0  0  0  0  0  0  0  0  0  0
   21.6523   13.6412   23.3861 C   0  0  0  0  0  0  0  0  0  0  0  0
   21.6581   14.3184   24.2285 H   0  0  0  0  0  0  0  0  0  0  0  0
   20.6688   12.6507   23.2738 C   0  0  0  0  0  0  0  0  0  0  0  0
   20.6628   11.7866   22.1755 C   0  0  0  0  0  0  0  0  0  0  0  0
   19.8924   11.0310   22.1160 H   0  0  0  0  0  0  0  0  0  0  0  0
   19.6424   12.5064   24.2660 C   0  0  0  0  0  0  0  0  0  0  0  0
   18.7869   12.3746   25.0668 N   0  0  0  0  0  0  0  0  0  0  0  0
  1  4  2  0
  1  5  1  0
  1  6  1  0
  2  3  1  0
  2  5  1  0
  2  7  1  0
  5 14  1  6
  5 25  1  0
  6  7  1  0
  6 10  1  0
  7  8  2  0
  8  9  1  0
 10 11  1  0
 10 12  1  0
 10 13  1  0
 14 15  2  0
 14 23  1  0
 15 16  1  0
 15 17  1  0
 17 18  1  0
 17 19  2  0
 19 20  1  0
 19 21  1  0
 21 22  1  0
 21 23  2  0
 23 24  1  0
 25 26  2  0
 25 33  1  0
 26 27  1  0
 26 28  1  0
 28 29  1  0
 28 30  2  0
 30 31  1  0
 30 32  1  0
 32 33  2  0
 32 35  1  0
 33 34  1  0
 35 36  3  0
M  END
> <intraLJ>
26.107    

> <intraEL>
0.378     

> <intraDihe>
42.027    

> <interLJ>
0.000     

> <interEJ>
0.000     

> <gridLJ>
-4.244    

> <gridEL>
0.000     

> <totalE>
64.268    

> <LGFE>
-4.244  

> <LE>
-0.193  

> <SMILES>
[H]/N=C1\N[C@](c2ccccc2)(c2cccc(C#N)c2)C(=O)N1C

> <atom.dprop.GFE>
-0.0017 -0.9230 0.0000 -0.4300 -0.1911 -0.1968 -0.1921 -1.3450 0.0000 -0.3070 0.0000 0.0000 0.0000 -0.1109 0.0058 0.0000 -0.0294 0.0000 -0.1869 0.0000 -0.1692 0.0000 -0.2168 0.0000 -0.0147 -0.0202 0.0000 -0.0110 0.0000 0.0147 0.0000 0.0715 0.0094 0.0000 0.0000 0.0000

> <atom.prop.CLASS>
GEHC IMIH NCLA FORO PRPC GEHC GEHC GENA NCLA PRPC NCLA NCLA NCLA BENC BENC NCLA BENC NCLA BENC NCLA BENC NCLA BENC NCLA BENC BENC NCLA BENC NCLA BENC NCLA BENC BENC NCLA NCLA NCLA

> <cluster_id>
1

> <rmsd_to_cluster_rep>
0.00    

> <ligRMSD>
5.94    

> <ligCOMD>
1.13    

$$$$
bace1_merck_10_4i_700
     RDKit          3D

 44 47  0  0  1  0  0  0  0  0999 V2000
   23.8511    8.8831   20.8265 O   0  0  0  0  0  0  0  0  0  0  0  0
   23.7249    9.8092   20.0175 C   0  0  0  0  0  0  0  0  0  0  0  0
   22.5930   10.8719   19.9277 C   0  0  1  0  0  0  0  0  0  0  0  0
   23.0733   11.6887   18.7611 N   0  0  0  0  0  0  0  0  0  0  0  0
   22.3417   11.8507   18.0746 H   0  0  0  0  0  0  0  0  0  0  0  0
   24.2505   11.1771   18.1786 C   0  0  0  0  0  0  0  0  0  0  0  0
   24.5921   10.1089   18.9865 N   0  0  0  0  0  0  0  0  0  0  0  0
   24.8441   11.7449   17.0691 N   0  0  0  0  0  0  0  0  0  0  0  0
   25.6778   11.2517   16.8257 H   0  0  0  0  0  0  0  0  0  0  0  0
   25.7788    9.3103   18.7757 C   0  0  0  0  0  0  0  0  0  0  0  0
   26.3913    9.6820   17.9247 H   0  0  0  0  0  0  0  0  0  0  0  0
   25.4953    8.2564   18.5612 H   0  0  0  0  0  0  0  0  0  0  0  0
   26.4153    9.3265   19.6878 H   0  0  0  0  0  0  0  0  0  0  0  0
   21.3138   10.1896   19.4514 C   0  0  0  0  0  0  0  0  0  0  0  0
   20.4102   10.8080   18.5416 C   0  0  0  0  0  0  0  0  0  0  0  0
   20.6859   11.7235   18.0392 H   0  0  0  0  0  0  0  0  0  0  0  0
   19.1563   10.2603   18.2601 C   0  0  0  0  0  0  0  0  0  0  0  0
   18.5046   10.7416   17.5453 H   0  0  0  0  0  0  0  0  0  0  0  0
   18.7432    9.0923   18.9040 C   0  0  0  0  0  0  0  0  0  0  0  0
   17.7759    8.6650   18.6830 H   0  0  0  0  0  0  0  0  0  0  0  0
   19.5666    8.4982   19.8596 C   0  0  0  0  0  0  0  0  0  0  0  0
   19.2342    7.6159   20.3879 H   0  0  0  0  0  0  0  0  0  0  0  0
   20.8134    9.0540   20.1449 C   0  0  0  0  0  0  0  0  0  0  0  0
   21.3853    8.5772   20.9237 H   0  0  0  0  0  0  0  0  0  0  0  0
   22.7471   11.7994   21.1080 C   0  0  0  0  0  0  0  0  0  0  0  0
   21.5770   12.0483   21.8687 C   0  0  0  0  0  0  0  0  0  0  0  0
   20.6379   11.5946   21.5877 H   0  0  0  0  0  0  0  0  0  0  0  0
   21.5953   12.8525   23.0100 C   0  0  0  0  0  0  0  0  0  0  0  0
   20.6899   13.0063   23.5795 H   0  0  0  0  0  0  0  0  0  0  0  0
   22.7899   13.4450   23.4220 C   0  0  0  0  0  0  0  0  0  0  0  0
   22.8003   14.0478   24.3198 H   0  0  0  0  0  0  0  0  0  0  0  0
   23.9656   13.2584   22.6739 C   0  0  0  0  0  0  0  0  0  0  0  0
   23.9336   12.4510   21.5249 C   0  0  0  0  0  0  0  0  0  0  0  0
   24.8461   12.2886   20.9693 H   0  0  0  0  0  0  0  0  0  0  0  0
   27.6907   14.8336   23.9056 C   0  0  0  0  0  0  0  0  0  0  0  0
   28.6549   15.2410   24.1642 H   0  0  0  0  0  0  0  0  0  0  0  0
   27.2697   14.7701   22.5647 C   0  0  0  0  0  0  0  0  0  0  0  0
   27.9232   15.1299   21.7803 H   0  0  0  0  0  0  0  0  0  0  0  0
   26.0935   14.2630   22.1931 N   0  0  0  0  0  0  0  0  0  0  0  0
   25.2667   13.8295   23.1507 C   0  0  0  0  0  0  0  0  0  0  0  0
   25.5735   13.8316   24.5230 C   0  0  0  0  0  0  0  0  0  0  0  0
   24.8892   13.4461   25.2645 H   0  0  0  0  0  0  0  0  0  0  0  0
   26.8209   14.3476   24.8943 C   0  0  0  0  0  0  0  0  0  0  0  0
   27.1104   14.3733   25.9342 H   0  0  0  0  0  0  0  0  0  0  0  0
  1  2  2  0
  2  3  1  0
  2  7  1  0
  3  4  1  0
  3 14  1  6
  3 25  1  0
  4  5  1  0
  4  6  1  0
  6  7  1  0
  6  8  2  0
  7 10  1  0
  8  9  1  0
 10 11  1  0
 10 12  1  0
 10 13  1  0
 14 15  2  0
 14 23  1  0
 15 16  1  0
 15 17  1  0
 17 18  1  0
 17 19  2  0
 19 20  1  0
 19 21  1  0
 21 22  1  0
 21 23  2  0
 23 24  1  0
 25 26  2  0
 25 33  1  0
 26 27  1  0
 26 28  1  0
 28 29  1  0
 28 30  2  0
 30 31  1  0
 30 32  1  0
 32 33  2  0
 32 40  1  0
 33 34  1  0
 35 36  1  0
 35 37  2  0
 35 43  1  0
 37 38  1  0
 37 39  1  0
 39 40  2  0
 40 41  1  0
 41 42  1  0
 41 43  2  0
 43 44  1  0
M  END
> <intraLJ>
40.845    

> <intraEL>
1.263     

> <intraDihe>
53.383    

> <interLJ>
0.000     

> <interEJ>
0.000     

> <gridLJ>
-3.547    

> <gridEL>
0.000     

> <totalE>
91.945    

> <LGFE>
-3.547  

> <LE>
-0.136  

> <SMILES>
[H]/N=C1/N[C@](c2ccccc2)(c2cccc(-c3ccccn3)c2)C(=O)N1C

> <atom.dprop.GFE>
-0.7200 -0.1778 -0.1029 -0.7260 0.0000 -0.2711 -0.2970 -0.8260 0.0000 -0.3886 0.0000 0.0000 0.0000 -0.0595 -0.1982 0.0000 -0.2051 0.0000 -0.2619 0.0000 -0.0439 0.0000 -0.0045 0.0000 0.0364 -0.0147 0.0000 -0.0224 0.0000 -0.0003 0.0000 0.0082 0.0341 0.0000 0.1480 0.0000 0.1528 0.0000 0.1400 0.0561 0.0496 0.0000 0.1480 0.0000

> <atom.prop.CLASS>
FORO GEHC PRPC IMIH NCLA GEHC GEHC GENA NCLA PRPC NCLA NCLA NCLA BENC BENC NCLA BENC NCLA BENC NCLA BENC NCLA BENC NCLA BENC BENC NCLA BENC NCLA BENC NCLA BENC BENC NCLA BENC NCLA GEHC NCLA IMIN BENC BENC NCLA BENC NCLA

> <cluster_id>
1

> <rmsd_to_cluster_rep>
0.00    

> <ligRMSD>
4.58    

> <ligCOMD>
0.94    

$$$$
bace1_merck_11_4j_4djw_388
     RDKit          3D

 44 47  0  0  1  0  0  0  0  0999 V2000
   23.8737    8.9025   20.8464 O   0  0  0  0  0  0  0  0  0  0  0  0
   23.7113    9.8198   20.0338 C   0  0  0  0  0  0  0  0  0  0  0  0
   22.5484   10.8489   19.9520 C   0  0  1  0  0  0  0  0  0  0  0  0
   22.9932   11.6755   18.7779 N   0  0  0  0  0  0  0  0  0  0  0  0
   22.2496   11.8138   18.0990 H   0  0  0  0  0  0  0  0  0  0  0  0
   24.1768   11.1937   18.1831 C   0  0  0  0  0  0  0  0  0  0  0  0
   24.5575   10.1390   18.9913 N   0  0  0  0  0  0  0  0  0  0  0  0
   24.7411   11.7732   17.0643 N   0  0  0  0  0  0  0  0  0  0  0  0
   25.5851   11.3023   16.8124 H   0  0  0  0  0  0  0  0  0  0  0  0
   25.7637    9.3730   18.7704 C   0  0  0  0  0  0  0  0  0  0  0  0
   26.3557    9.7576   17.9108 H   0  0  0  0  0  0  0  0  0  0  0  0
   25.5072    8.3105   18.5637 H   0  0  0  0  0  0  0  0  0  0  0  0
   26.4097    9.4111   19.6750 H   0  0  0  0  0  0  0  0  0  0  0  0
   21.2848   10.1290   19.4920 C   0  0  0  0  0  0  0  0  0  0  0  0
   20.3530   10.7193   18.5921 C   0  0  0  0  0  0  0  0  0  0  0  0
   20.5966   11.6406   18.0837 H   0  0  0  0  0  0  0  0  0  0  0  0
   19.1117   10.1357   18.3280 C   0  0  0  0  0  0  0  0  0  0  0  0
   18.4378   10.5963   17.6201 H   0  0  0  0  0  0  0  0  0  0  0  0
   18.7397    8.9586   18.9803 C   0  0  0  0  0  0  0  0  0  0  0  0
   17.7821    8.5036   18.7727 H   0  0  0  0  0  0  0  0  0  0  0  0
   19.5911    8.3910   19.9274 C   0  0  0  0  0  0  0  0  0  0  0  0
   19.2903    7.5015   20.4625 H   0  0  0  0  0  0  0  0  0  0  0  0
   20.8253    8.9824   20.1954 C   0  0  0  0  0  0  0  0  0  0  0  0
   21.4201    8.5244   20.9683 H   0  0  0  0  0  0  0  0  0  0  0  0
   22.6861   11.7836   21.1281 C   0  0  0  0  0  0  0  0  0  0  0  0
   21.5148   12.0124   21.8937 C   0  0  0  0  0  0  0  0  0  0  0  0
   20.5839   11.5383   21.6194 H   0  0  0  0  0  0  0  0  0  0  0  0
   21.5219   12.8240   23.0305 C   0  0  0  0  0  0  0  0  0  0  0  0
   20.6158   12.9632   23.6027 H   0  0  0  0  0  0  0  0  0  0  0  0
   22.7056   13.4435   23.4340 C   0  0  0  0  0  0  0  0  0  0  0  0
   22.7100   14.0534   24.3268 H   0  0  0  0  0  0  0  0  0  0  0  0
   23.8788   13.2695   22.6821 C   0  0  0  0  0  0  0  0  0  0  0  0
   23.8603   12.4595   21.5367 C   0  0  0  0  0  0  0  0  0  0  0  0
   24.7728   12.3116   20.9768 H   0  0  0  0  0  0  0  0  0  0  0  0
   27.5671   14.8588   24.0541 C   0  0  0  0  0  0  0  0  0  0  0  0
   28.5233   15.2189   24.4107 H   0  0  0  0  0  0  0  0  0  0  0  0
   27.5355   13.6542   23.4862 N   0  0  0  0  0  0  0  0  0  0  0  0
   26.3856   13.1591   23.0332 C   0  0  0  0  0  0  0  0  0  0  0  0
   26.4067   12.1690   22.5946 H   0  0  0  0  0  0  0  0  0  0  0  0
   25.1727   13.8696   23.1270 C   0  0  0  0  0  0  0  0  0  0  0  0
   25.2023   15.1442   23.7235 C   0  0  0  0  0  0  0  0  0  0  0  0
   24.2971   15.7241   23.8378 H   0  0  0  0  0  0  0  0  0  0  0  0
   26.4178   15.6517   24.2013 C   0  0  0  0  0  0  0  0  0  0  0  0
   26.4700   16.6215   24.6701 H   0  0  0  0  0  0  0  0  0  0  0  0
  1  2  2  0
  2  3  1  0
  2  7  1  0
  3  4  1  0
  3 14  1  6
  3 25  1  0
  4  5  1  0
  4  6  1  0
  6  7  1  0
  6  8  2  0
  7 10  1  0
  8  9  1  0
 10 11  1  0
 10 12  1  0
 10 13  1  0
 14 15  2  0
 14 23  1  0
 15 16  1  0
 15 17  1  0
 17 18  1  0
 17 19  2  0
 19 20  1  0
 19 21  1  0
 21 22  1  0
 21 23  2  0
 23 24  1  0
 25 26  2  0
 25 33  1  0
 26 27  1  0
 26 28  1  0
 28 29  1  0
 28 30  2  0
 30 31  1  0
 30 32  1  0
 32 33  2  0
 32 40  1  0
 33 34  1  0
 35 36  1  0
 35 37  2  0
 35 43  1  0
 37 38  1  0
 38 39  1  0
 38 40  2  0
 40 41  1  0
 41 42  1  0
 41 43  2  0
 43 44  1  0
M  END
> <intraLJ>
40.335    

> <intraEL>
0.816     

> <intraDihe>
52.041    

> <interLJ>
0.000     

> <interEJ>
0.000     

> <gridLJ>
-3.764    

> <gridEL>
0.000     

> <totalE>
89.428    

> <LGFE>
-3.764  

> <LE>
-0.145  

> <SMILES>
[H]/N=C1/N[C@](c2ccccc2)(c2cccc(-c3cccnc3)c2)C(=O)N1C

> <atom.dprop.GFE>
-0.7200 -0.1778 -0.1029 -0.7260 0.0000 -0.2711 -0.2970 -0.8260 0.0000 -0.3886 0.0000 0.0000 0.0000 -0.0595 -0.1271 0.0000 -0.2051 0.0000 -0.2619 0.0000 -0.0439 0.0000 -0.0045 0.0000 0.0364 -0.0147 0.0000 -0.0224 0.0000 -0.0003 0.0000 0.0082 0.0341 0.0000 0.1885 0.0000 -0.0110 0.1625 0.0000 0.0561 -0.0257 0.0000 0.0356 0.0000

> <atom.prop.CLASS>
FORO GEHC PRPC IMIH NCLA GEHC GEHC GENA NCLA PRPC NCLA NCLA NCLA BENC BENC NCLA BENC NCLA BENC NCLA BENC NCLA BENC NCLA BENC BENC NCLA BENC NCLA BENC NCLA BENC BENC NCLA GEHC NCLA IMIN GEHC NCLA BENC BENC NCLA BENC NCLA

> <cluster_id>
1

> <rmsd_to_cluster_rep>
0.00    

> <ligRMSD>
4.55    

> <ligCOMD>
0.98    

$$$$
bace1_merck_12_4k_1199
     RDKit          3D

 44 47  0  0  1  0  0  0  0  0999 V2000
   23.8685    8.8458   20.9049 O   0  0  0  0  0  0  0  0  0  0  0  0
   23.7301    9.7664   20.0915 C   0  0  0  0  0  0  0  0  0  0  0  0
   22.6114   10.8429   20.0286 C   0  0  1  0  0  0  0  0  0  0  0  0
   23.0741   11.6559   18.8516 N   0  0  0  0  0  0  0  0  0  0  0  0
   22.3269   11.8296   18.1849 H   0  0  0  0  0  0  0  0  0  0  0  0
   24.2254   11.1247   18.2361 C   0  0  0  0  0  0  0  0  0  0  0  0
   24.5723   10.0517   19.0359 N   0  0  0  0  0  0  0  0  0  0  0  0
   24.7957   11.6836   17.1096 N   0  0  0  0  0  0  0  0  0  0  0  0
   25.6141   11.1775   16.8420 H   0  0  0  0  0  0  0  0  0  0  0  0
   25.7396    9.2338   18.7956 C   0  0  0  0  0  0  0  0  0  0  0  0
   26.3346    9.5939   17.9275 H   0  0  0  0  0  0  0  0  0  0  0  0
   25.4331    8.1843   18.5912 H   0  0  0  0  0  0  0  0  0  0  0  0
   26.4005    9.2413   19.6903 H   0  0  0  0  0  0  0  0  0  0  0  0
   21.3120   10.1808   19.5840 C   0  0  0  0  0  0  0  0  0  0  0  0
   20.3945   10.8154   18.6997 C   0  0  0  0  0  0  0  0  0  0  0  0
   20.6728   11.7244   18.1870 H   0  0  0  0  0  0  0  0  0  0  0  0
   19.1222   10.2925   18.4576 C   0  0  0  0  0  0  0  0  0  0  0  0
   18.4590   10.7853   17.7615 H   0  0  0  0  0  0  0  0  0  0  0  0
   18.7053    9.1346   19.1172 C   0  0  0  0  0  0  0  0  0  0  0  0
   17.7233    8.7266   18.9267 H   0  0  0  0  0  0  0  0  0  0  0  0
   19.5451    8.5260   20.0492 C   0  0  0  0  0  0  0  0  0  0  0  0
   19.2112    7.6517   20.5896 H   0  0  0  0  0  0  0  0  0  0  0  0
   20.8111    9.0566   20.2949 C   0  0  0  0  0  0  0  0  0  0  0  0
   21.3977    8.5698   21.0566 H   0  0  0  0  0  0  0  0  0  0  0  0
   22.8059   11.7610   21.2083 C   0  0  0  0  0  0  0  0  0  0  0  0
   21.6651   12.0129   22.0112 C   0  0  0  0  0  0  0  0  0  0  0  0
   20.7155   11.5615   21.7644 H   0  0  0  0  0  0  0  0  0  0  0  0
   21.7260   12.8204   23.1491 C   0  0  0  0  0  0  0  0  0  0  0  0
   20.8411   12.9802   23.7485 H   0  0  0  0  0  0  0  0  0  0  0  0
   22.9335   13.4162   23.5132 C   0  0  0  0  0  0  0  0  0  0  0  0
   22.9732   14.0388   24.3965 H   0  0  0  0  0  0  0  0  0  0  0  0
   24.0783   13.2216   22.7220 C   0  0  0  0  0  0  0  0  0  0  0  0
   24.0067   12.4067   21.5819 C   0  0  0  0  0  0  0  0  0  0  0  0
   24.8938   12.2499   20.9848 H   0  0  0  0  0  0  0  0  0  0  0  0
   27.7938   15.0455   23.7462 N   0  0  0  0  0  0  0  0  0  0  0  0
   26.6649   15.7406   23.8642 C   0  0  0  0  0  0  0  0  0  0  0  0
   26.7371   16.7597   24.2216 H   0  0  0  0  0  0  0  0  0  0  0  0
   25.4177   15.1950   23.5386 C   0  0  0  0  0  0  0  0  0  0  0  0
   24.5196   15.7864   23.6443 H   0  0  0  0  0  0  0  0  0  0  0  0
   25.3811   13.8602   23.0866 C   0  0  0  0  0  0  0  0  0  0  0  0
   26.5831   13.1367   22.9674 C   0  0  0  0  0  0  0  0  0  0  0  0
   26.6019   12.1155   22.6154 H   0  0  0  0  0  0  0  0  0  0  0  0
   27.7738   13.7879   23.3104 C   0  0  0  0  0  0  0  0  0  0  0  0
   28.7203   13.2690   23.2309 H   0  0  0  0  0  0  0  0  0  0  0  0
  1  2  2  0
  2  3  1  0
  2  7  1  0
  3  4  1  0
  3 14  1  6
  3 25  1  0
  4  5  1  0
  4  6  1  0
  6  7  1  0
  6  8  2  0
  7 10  1  0
  8  9  1  0
 10 11  1  0
 10 12  1  0
 10 13  1  0
 14 15  2  0
 14 23  1  0
 15 16  1  0
 15 17  1  0
 17 18  1  0
 17 19  2  0
 19 20  1  0
 19 21  1  0
 21 22  1  0
 21 23  2  0
 23 24  1  0
 25 26  2  0
 25 33  1  0
 26 27  1  0
 26 28  1  0
 28 29  1  0
 28 30  2  0
 30 31  1  0
 30 32  1  0
 32 33  2  0
 32 40  1  0
 33 34  1  0
 35 36  2  0
 35 43  1  0
 36 37  1  0
 36 38  1  0
 38 39  1  0
 38 40  2  0
 40 41  1  0
 41 42  1  0
 41 43  2  0
 43 44  1  0
M  END
> <intraLJ>
40.568    

> <intraEL>
-0.831    

> <intraDihe>
52.248    

> <interLJ>
0.000     

> <interEJ>
0.000     

> <gridLJ>
-3.074    

> <gridEL>
0.000     

> <totalE>
88.911    

> <LGFE>
-3.074  

> <LE>
-0.118  

> <SMILES>
[H]/N=C1/N[C@](c2ccccc2)(c2cccc(-c3ccncc3)c2)C(=O)N1C

> <atom.dprop.GFE>
-0.7200 -0.1082 -0.1029 -0.7260 0.0000 -0.2711 -0.2970 -0.8260 0.0000 -0.3886 0.0000 0.0000 0.0000 -0.0595 -0.1982 0.0000 -0.2051 0.0000 -0.2517 0.0000 -0.0439 0.0000 -0.0045 0.0000 0.1505 -0.0147 0.0000 0.0147 0.0000 0.0167 0.0000 0.0082 0.0341 0.0000 0.2780 0.1349 0.0000 -0.0257 0.0000 0.0561 0.1967 0.0000 0.2797 0.0000

> <atom.prop.CLASS>
FORO GEHC PRPC IMIH NCLA GEHC GEHC GENA NCLA PRPC NCLA NCLA NCLA BENC BENC NCLA BENC NCLA BENC NCLA BENC NCLA BENC NCLA BENC BENC NCLA BENC NCLA BENC NCLA BENC BENC NCLA IMIN GEHC NCLA BENC NCLA BENC BENC NCLA GEHC NCLA

> <cluster_id>
1

> <rmsd_to_cluster_rep>
0.00    

> <ligRMSD>
4.58    

> <ligCOMD>
0.98    

$$$$
bace1_merck_13_4l_1151
     RDKit          3D

 43 46  0  0  1  0  0  0  0  0999 V2000
   23.9020    8.8874   20.8598 O   0  0  0  0  0  0  0  0  0  0  0  0
   23.7533    9.8087   20.0491 C   0  0  0  0  0  0  0  0  0  0  0  0
   22.6203   10.8701   19.9875 C   0  0  1  0  0  0  0  0  0  0  0  0
   23.0772   11.6959   18.8168 N   0  0  0  0  0  0  0  0  0  0  0  0
   22.3300   11.8635   18.1485 H   0  0  0  0  0  0  0  0  0  0  0  0
   24.2365   11.1819   18.2015 C   0  0  0  0  0  0  0  0  0  0  0  0
   24.5948   10.1097   18.9973 N   0  0  0  0  0  0  0  0  0  0  0  0
   24.8029   11.7534   17.0791 N   0  0  0  0  0  0  0  0  0  0  0  0
   25.6284   11.2590   16.8114 H   0  0  0  0  0  0  0  0  0  0  0  0
   25.7740    9.3089   18.7580 C   0  0  0  0  0  0  0  0  0  0  0  0
   26.3673    9.6808   17.8937 H   0  0  0  0  0  0  0  0  0  0  0  0
   25.4826    8.2562   18.5481 H   0  0  0  0  0  0  0  0  0  0  0  0
   26.4315    9.3216   19.6552 H   0  0  0  0  0  0  0  0  0  0  0  0
   21.3321   10.1927   19.5333 C   0  0  0  0  0  0  0  0  0  0  0  0
   20.4169   10.8128   18.6364 C   0  0  0  0  0  0  0  0  0  0  0  0
   20.6914   11.7210   18.1204 H   0  0  0  0  0  0  0  0  0  0  0  0
   19.1515   10.2768   18.3866 C   0  0  0  0  0  0  0  0  0  0  0  0
   18.4900   10.7591   17.6814 H   0  0  0  0  0  0  0  0  0  0  0  0
   18.7392    9.1195   19.0500 C   0  0  0  0  0  0  0  0  0  0  0  0
   17.7626    8.7014   18.8536 H   0  0  0  0  0  0  0  0  0  0  0  0
   19.5763    8.5243   19.9930 C   0  0  0  0  0  0  0  0  0  0  0  0
   19.2456    7.6504   20.5359 H   0  0  0  0  0  0  0  0  0  0  0  0
   20.8352    9.0680   20.2465 C   0  0  0  0  0  0  0  0  0  0  0  0
   21.4196    8.5913   21.0162 H   0  0  0  0  0  0  0  0  0  0  0  0
   22.7972   11.7837   21.1743 C   0  0  0  0  0  0  0  0  0  0  0  0
   21.6324   12.0913   21.9197 C   0  0  0  0  0  0  0  0  0  0  0  0
   20.6763   11.6822   21.6281 H   0  0  0  0  0  0  0  0  0  0  0  0
   21.6749   12.9013   23.0564 C   0  0  0  0  0  0  0  0  0  0  0  0
   20.7702   13.1045   23.6113 H   0  0  0  0  0  0  0  0  0  0  0  0
   22.8892   13.4452   23.4765 C   0  0  0  0  0  0  0  0  0  0  0  0
   22.9106   14.0735   24.3565 H   0  0  0  0  0  0  0  0  0  0  0  0
   24.0657   13.1980   22.7446 C   0  0  0  0  0  0  0  0  0  0  0  0
   24.0061   12.3754   21.6056 C   0  0  0  0  0  0  0  0  0  0  0  0
   24.9087   12.1708   21.0473 H   0  0  0  0  0  0  0  0  0  0  0  0
   27.7129   14.8699   23.9187 C   0  0  0  0  0  0  0  0  0  0  0  0
   28.6484   15.3100   24.2310 H   0  0  0  0  0  0  0  0  0  0  0  0
   27.7262   13.6380   23.4059 N   0  0  0  0  0  0  0  0  0  0  0  0
   26.5869   13.0711   23.0144 C   0  0  0  0  0  0  0  0  0  0  0  0
   26.6167   12.0703   22.6050 H   0  0  0  0  0  0  0  0  0  0  0  0
   25.3821   13.7952   23.1471 C   0  0  0  0  0  0  0  0  0  0  0  0
   25.3394   15.0315   23.6593 N   0  0  0  0  0  0  0  0  0  0  0  0
   26.4965   15.5721   24.0466 C   0  0  0  0  0  0  0  0  0  0  0  0
   26.4781   16.5696   24.4621 H   0  0  0  0  0  0  0  0  0  0  0  0
  1  2  2  0
  2  3  1  0
  2  7  1  0
  3  4  1  0
  3 14  1  6
  3 25  1  0
  4  5  1  0
  4  6  1  0
  6  7  1  0
  6  8  2  0
  7 10  1  0
  8  9  1  0
 10 11  1  0
 10 12  1  0
 10 13  1  0
 14 15  2  0
 14 23  1  0
 15 16  1  0
 15 17  1  0
 17 18  1  0
 17 19  2  0
 19 20  1  0
 19 21  1  0
 21 22  1  0
 21 23  2  0
 23 24  1  0
 25 26  2  0
 25 33  1  0
 26 27  1  0
 26 28  1  0
 28 29  1  0
 28 30  2  0
 30 31  1  0
 30 32  1  0
 32 33  2  0
 32 40  1  0
 33 34  1  0
 35 36  1  0
 35 37  2  0
 35 42  1  0
 37 38  1  0
 38 39  1  0
 38 40  2  0
 40 41  1  0
 41 42  2  0
 42 43  1  0
M  END
> <intraLJ>
42.522    

> <intraEL>
4.981     

> <intraDihe>
53.114    

> <interLJ>
0.000     

> <interEJ>
0.000     

> <gridLJ>
-3.269    

> <gridEL>
0.000     

> <totalE>
97.348    

> <LGFE>
-3.269  

> <LE>
-0.126  

> <SMILES>
[H]/N=C1/N[C@](c2ccccc2)(c2cccc(-c3cnccn3)c2)C(=O)N1C

> <atom.dprop.GFE>
-0.7200 -0.1778 -0.1029 -0.7260 0.0000 -0.2711 -0.2970 -0.8260 0.0000 -0.3886 0.0000 0.0000 0.0000 -0.0595 -0.1982 0.0000 -0.2051 0.0000 -0.2619 0.0000 -0.0439 0.0000 -0.0045 0.0000 0.0364 -0.0147 0.0000 0.0147 0.0000 0.0167 0.0000 0.0082 0.0341 0.0000 0.2324 0.0000 -0.0110 0.1625 0.0000 0.0561 0.3430 0.1349 0.0000

> <atom.prop.CLASS>
FORO GEHC PRPC IMIH NCLA GEHC GEHC GENA NCLA PRPC NCLA NCLA NCLA BENC BENC NCLA BENC NCLA BENC NCLA BENC NCLA BENC NCLA BENC BENC NCLA BENC NCLA BENC NCLA BENC BENC NCLA GEHC NCLA IMIN GEHC NCLA BENC IMIN GEHC NCLA

> <cluster_id>
1

> <rmsd_to_cluster_rep>
0.00    

> <ligRMSD>
4.55    

> <ligCOMD>
0.97    

$$$$
bace1_merck_14_4m_61
     RDKit          3D

 47 50  0  0  1  0  0  0  0  0999 V2000
   23.9009    8.7831   20.8539 O   0  0  0  0  0  0  0  0  0  0  0  0
   23.7348    9.7003   20.0419 C   0  0  0  0  0  0  0  0  0  0  0  0
   22.5794   10.7366   19.9753 C   0  0  1  0  0  0  0  0  0  0  0  0
   23.0219   11.5723   18.8066 N   0  0  0  0  0  0  0  0  0  0  0  0
   22.2739   11.7238   18.1354 H   0  0  0  0  0  0  0  0  0  0  0  0
   24.1950   11.0850   18.1966 C   0  0  0  0  0  0  0  0  0  0  0  0
   24.5734   10.0203   18.9933 N   0  0  0  0  0  0  0  0  0  0  0  0
   24.7523   11.6705   17.0771 N   0  0  0  0  0  0  0  0  0  0  0  0
   25.5900   11.1955   16.8119 H   0  0  0  0  0  0  0  0  0  0  0  0
   25.7691    9.2437   18.7569 C   0  0  0  0  0  0  0  0  0  0  0  0
   26.3575    9.6287   17.8950 H   0  0  0  0  0  0  0  0  0  0  0  0
   25.4995    8.1856   18.5447 H   0  0  0  0  0  0  0  0  0  0  0  0
   26.4232    9.2683   19.6562 H   0  0  0  0  0  0  0  0  0  0  0  0
   21.3077   10.0326   19.5170 C   0  0  0  0  0  0  0  0  0  0  0  0
   20.3672   10.6476   18.6432 C   0  0  0  0  0  0  0  0  0  0  0  0
   20.6116   11.5745   18.1455 H   0  0  0  0  0  0  0  0  0  0  0  0
   19.1144   10.0833   18.3930 C   0  0  0  0  0  0  0  0  0  0  0  0
   18.4332   10.5632   17.7052 H   0  0  0  0  0  0  0  0  0  0  0  0
   18.7401    8.9008   19.0339 C   0  0  0  0  0  0  0  0  0  0  0  0
   17.7732    8.4608   18.8374 H   0  0  0  0  0  0  0  0  0  0  0  0
   19.6024    8.3074   19.9552 C   0  0  0  0  0  0  0  0  0  0  0  0
   19.3008    7.4128   20.4812 H   0  0  0  0  0  0  0  0  0  0  0  0
   20.8489    8.8789   20.2089 C   0  0  0  0  0  0  0  0  0  0  0  0
   21.4541    8.4010   20.9616 H   0  0  0  0  0  0  0  0  0  0  0  0
   22.7327   11.6538   21.1608 C   0  0  0  0  0  0  0  0  0  0  0  0
   21.5587   11.9320   21.9052 C   0  0  0  0  0  0  0  0  0  0  0  0
   20.6135   11.4991   21.6126 H   0  0  0  0  0  0  0  0  0  0  0  0
   21.5794   12.7427   23.0424 C   0  0  0  0  0  0  0  0  0  0  0  0
   20.6695   12.9226   23.5969 H   0  0  0  0  0  0  0  0  0  0  0  0
   22.7792   13.3141   23.4643 C   0  0  0  0  0  0  0  0  0  0  0  0
   22.7897   13.9365   24.3486 H   0  0  0  0  0  0  0  0  0  0  0  0
   23.9558   13.0910   22.7303 C   0  0  0  0  0  0  0  0  0  0  0  0
   23.9265   12.2753   21.5909 C   0  0  0  0  0  0  0  0  0  0  0  0
   24.8395   12.0946   21.0414 H   0  0  0  0  0  0  0  0  0  0  0  0
   27.6771   14.6963   23.9672 C   0  0  0  0  0  0  0  0  0  0  0  0
   28.6466   15.0677   24.2718 H   0  0  0  0  0  0  0  0  0  0  0  0
   27.6309   13.4880   23.4075 N   0  0  0  0  0  0  0  0  0  0  0  0
   26.4634   12.9825   23.0197 C   0  0  0  0  0  0  0  0  0  0  0  0
   26.4709   11.9955   22.5732 H   0  0  0  0  0  0  0  0  0  0  0  0
   25.2521   13.6871   23.1642 C   0  0  0  0  0  0  0  0  0  0  0  0
   25.2969   14.9602   23.7571 C   0  0  0  0  0  0  0  0  0  0  0  0
   24.3935   15.5355   23.9047 H   0  0  0  0  0  0  0  0  0  0  0  0
   26.5271   15.4838   24.1740 C   0  0  0  0  0  0  0  0  0  0  0  0
   26.5855   16.8348   24.8146 C   0  0  0  0  0  0  0  0  0  0  0  0
   27.6393   17.0966   25.0514 H   0  0  0  0  0  0  0  0  0  0  0  0
   25.9860   16.8154   25.7500 H   0  0  0  0  0  0  0  0  0  0  0  0
   26.1637   17.5852   24.1118 H   0  0  0  0  0  0  0  0  0  0  0  0
  1  2  2  0
  2  3  1  0
  2  7  1  0
  3  4  1  0
  3 14  1  6
  3 25  1  0
  4  5  1  0
  4  6  1  0
  6  7  1  0
  6  8  2  0
  7 10  1  0
  8  9  1  0
 10 11  1  0
 10 12  1  0
 10 13  1  0
 14 15  2  0
 14 23  1  0
 15 16  1  0
 15 17  1  0
 17 18  1  0
 17 19  2  0
 19 20  1  0
 19 21  1  0
 21 22  1  0
 21 23  2  0
 23 24  1  0
 25 26  2  0
 25 33  1  0
 26 27  1  0
 26 28  1  0
 28 29  1  0
 28 30  2  0
 30 31  1  0
 30 32  1  0
 32 33  2  0
 32 40  1  0
 33 34  1  0
 35 36  1  0
 35 37  2  0
 35 43  1  0
 37 38  1  0
 38 39  1  0
 38 40  2  0
 40 41  1  0
 41 42  1  0
 41 43  2  0
 43 44  1  0
 44 45  1  0
 44 46  1  0
 44 47  1  0
M  END
> <intraLJ>
41.110    

> <intraEL>
1.375     

> <intraDihe>
51.804    

> <interLJ>
0.000     

> <interEJ>
0.000     

> <gridLJ>
-3.554    

> <gridEL>
0.000     

> <totalE>
90.736    

> <LGFE>
-3.554  

> <LE>
-0.132  

> <SMILES>
[H]/N=C1/N[C@](c2ccccc2)(c2cccc(-c3cncc(C)c3)c2)C(=O)N1C

> <atom.dprop.GFE>
-0.7200 -0.1545 -0.0403 -0.7260 0.0000 -0.2711 -0.2970 -0.8260 0.0000 -0.3886 0.0000 0.0000 0.0000 -0.0595 -0.1271 0.0000 -0.2051 0.0000 -0.2619 0.0000 -0.0439 0.0000 -0.0045 0.0000 0.1505 -0.0147 0.0000 0.0506 0.0000 -0.0003 0.0000 0.0082 0.0341 0.0000 0.2797 0.0000 -0.0110 0.1625 0.0000 0.1284 -0.0257 0.0000 0.0356 -0.2261 0.0000 0.0000 0.0000

> <atom.prop.CLASS>
FORO GEHC PRPC IMIH NCLA GEHC GEHC GENA NCLA PRPC NCLA NCLA NCLA BENC BENC NCLA BENC NCLA BENC NCLA BENC NCLA BENC NCLA BENC BENC NCLA BENC NCLA BENC NCLA BENC BENC NCLA GEHC NCLA IMIN GEHC NCLA BENC BENC NCLA BENC PRPC NCLA NCLA NCLA

> <cluster_id>
1

> <rmsd_to_cluster_rep>
0.00    

> <ligRMSD>
4.68    

> <ligCOMD>
1.09    

$$$$
bace1_merck_15_4n_278
     RDKit          3D

 45 48  0  0  1  0  0  0  0  0999 V2000
   22.9166   13.9143   18.9581 O   0  0  0  0  0  0  0  0  0  0  0  0
   22.7104   13.3870   20.0571 C   0  0  0  0  0  0  0  0  0  0  0  0
   22.0843   11.9984   20.3620 C   0  0  1  0  0  0  0  0  0  0  0  0
   22.1828   11.9717   21.8619 N   0  0  0  0  0  0  0  0  0  0  0  0
   21.3092   11.6942   22.3009 H   0  0  0  0  0  0  0  0  0  0  0  0
   22.6923   13.1705   22.3996 C   0  0  0  0  0  0  0  0  0  0  0  0
   23.0142   13.9293   21.2895 N   0  0  0  0  0  0  0  0  0  0  0  0
   22.8228   13.3827   23.7578 N   0  0  0  0  0  0  0  0  0  0  0  0
   23.2232   14.2800   23.9367 H   0  0  0  0  0  0  0  0  0  0  0  0
   23.6190   15.2389   21.3772 C   0  0  0  0  0  0  0  0  0  0  0  0
   23.8275   15.5367   22.4284 H   0  0  0  0  0  0  0  0  0  0  0  0
   22.9424   16.0008   20.9312 H   0  0  0  0  0  0  0  0  0  0  0  0
   24.5818   15.2518   20.8203 H   0  0  0  0  0  0  0  0  0  0  0  0
   20.5933   12.0473   20.0503 C   0  0  0  0  0  0  0  0  0  0  0  0
   19.6235   11.3831   20.8533 C   0  0  0  0  0  0  0  0  0  0  0  0
   19.9034   10.9602   21.8069 H   0  0  0  0  0  0  0  0  0  0  0  0
   18.2920   11.2596   20.4503 C   0  0  0  0  0  0  0  0  0  0  0  0
   17.5756   10.7707   21.0946 H   0  0  0  0  0  0  0  0  0  0  0  0
   17.8867   11.7645   19.2133 C   0  0  0  0  0  0  0  0  0  0  0  0
   16.8559   11.6737   18.9028 H   0  0  0  0  0  0  0  0  0  0  0  0
   18.8219   12.3548   18.3640 C   0  0  0  0  0  0  0  0  0  0  0  0
   18.5193   12.7129   17.3903 H   0  0  0  0  0  0  0  0  0  0  0  0
   20.1524   12.4682   18.7665 C   0  0  0  0  0  0  0  0  0  0  0  0
   20.8375   12.8937   18.0518 H   0  0  0  0  0  0  0  0  0  0  0  0
   23.0725   10.9544   19.9111 C   0  0  0  0  0  0  0  0  0  0  0  0
   22.5553    9.8751   19.1514 C   0  0  0  0  0  0  0  0  0  0  0  0
   21.5005    9.8255   18.9247 H   0  0  0  0  0  0  0  0  0  0  0  0
   23.3772    8.8623   18.6517 C   0  0  0  0  0  0  0  0  0  0  0  0
   22.9537    8.0615   18.0624 H   0  0  0  0  0  0  0  0  0  0  0  0
   24.7470    8.8905   18.9102 C   0  0  0  0  0  0  0  0  0  0  0  0
   25.3785    8.1058   18.5166 H   0  0  0  0  0  0  0  0  0  0  0  0
   25.2890    9.9243   19.6914 C   0  0  0  0  0  0  0  0  0  0  0  0
   24.4580   10.9379   20.1871 C   0  0  0  0  0  0  0  0  0  0  0  0
   24.8858   11.7392   20.7729 H   0  0  0  0  0  0  0  0  0  0  0  0
   29.4506   10.1591   20.4563 C   0  0  0  0  0  0  0  0  0  0  0  0
   30.5126   10.2643   20.6372 H   0  0  0  0  0  0  0  0  0  0  0  0
   28.7892   11.2407   20.0476 N   0  0  0  0  0  0  0  0  0  0  0  0
   27.4833   11.1698   19.8058 C   0  0  0  0  0  0  0  0  0  0  0  0
   26.9876   12.0732   19.4713 H   0  0  0  0  0  0  0  0  0  0  0  0
   26.7507    9.9791   19.9801 C   0  0  0  0  0  0  0  0  0  0  0  0
   27.4425    8.8335   20.4079 C   0  0  0  0  0  0  0  0  0  0  0  0
   26.9208    7.8951   20.5402 H   0  0  0  0  0  0  0  0  0  0  0  0
   28.8200    8.9175   20.6491 C   0  0  0  0  0  0  0  0  0  0  0  0
   29.5598    7.7691   21.0831 C   0  0  0  0  0  0  0  0  0  0  0  0
   30.1641    6.8219   21.4416 N   0  0  0  0  0  0  0  0  0  0  0  0
  1  2  2  0
  2  3  1  0
  2  7  1  0
  3  4  1  0
  3 14  1  1
  3 25  1  0
  4  5  1  0
  4  6  1  0
  6  7  1  0
  6  8  2  0
  7 10  1  0
  8  9  1  0
 10 11  1  0
 10 12  1  0
 10 13  1  0
 14 15  2  0
 14 23  1  0
 15 16  1  0
 15 17  1  0
 17 18  1  0
 17 19  2  0
 19 20  1  0
 19 21  1  0
 21 22  1  0
 21 23  2  0
 23 24  1  0
 25 26  2  0
 25 33  1  0
 26 27  1  0
 26 28  1  0
 28 29  1  0
 28 30  2  0
 30 31  1  0
 30 32  1  0
 32 33  2  0
 32 40  1  0
 33 34  1  0
 35 36  1  0
 35 37  2  0
 35 43  1  0
 37 38  1  0
 38 39  1  0
 38 40  2  0
 40 41  1  0
 41 42  1  0
 41 43  2  0
 43 44  1  0
 44 45  3  0
M  END
> <intraLJ>
39.367    

> <intraEL>
1.130     

> <intraDihe>
53.171    

> <interLJ>
0.000     

> <interEJ>
0.000     

> <gridLJ>
-3.389    

> <gridEL>
0.000     

> <totalE>
90.278    

> <LGFE>
-3.389  

> <LE>
-0.121  

> <SMILES>
[H]/N=C1/N[C@](c2ccccc2)(c2cccc(-c3cncc(C#N)c3)c2)C(=O)N1C

> <atom.dprop.GFE>
-0.3270 0.0926 0.0336 0.3790 0.0000 -0.0649 -0.0017 0.0150 0.0000 0.0523 0.0000 0.0000 0.0000 -0.1919 -0.1419 0.0000 -0.1971 0.0000 -0.2482 0.0000 -0.2108 0.0000 -0.2660 0.0000 -0.1648 -0.0489 0.0000 -0.1054 0.0000 -0.1787 0.0000 -0.2022 -0.1288 0.0000 -0.1249 0.0000 -0.7860 -0.1069 0.0000 -0.2256 -0.0974 0.0000 -0.1430 0.0000 0.0000

> <atom.prop.CLASS>
FORO GEHC PRPC IMIH NCLA GEHC GEHC GENA NCLA PRPC NCLA NCLA NCLA BENC BENC NCLA BENC NCLA BENC NCLA BENC NCLA BENC NCLA BENC BENC NCLA BENC NCLA BENC NCLA BENC BENC NCLA GEHC NCLA IMIN GEHC NCLA BENC BENC NCLA BENC NCLA NCLA

> <cluster_id>
1

> <rmsd_to_cluster_rep>
0.00    

> <ligRMSD>
2.90    

> <ligCOMD>
1.14    

$$$$
bace1_merck_16_4o_53
     RDKit          3D

 44 47  0  0  1  0  0  0  0  0999 V2000
   21.9620   13.5522   18.9775 O   0  0  0  0  0  0  0  0  0  0  0  0
   22.0902   13.2465   20.1684 C   0  0  0  0  0  0  0  0  0  0  0  0
   21.8400   11.8716   20.8470 C   0  0  1  0  0  0  0  0  0  0  0  0
   22.2333   12.1849   22.2639 N   0  0  0  0  0  0  0  0  0  0  0  0
   21.5400   11.8673   22.9358 H   0  0  0  0  0  0  0  0  0  0  0  0
   22.5767   13.5386   22.4515 C   0  0  0  0  0  0  0  0  0  0  0  0
   22.5094   14.0836   21.1826 N   0  0  0  0  0  0  0  0  0  0  0  0
   22.9233   14.0567   23.6836 N   0  0  0  0  0  0  0  0  0  0  0  0
   23.1548   15.0251   23.6054 H   0  0  0  0  0  0  0  0  0  0  0  0
   22.8332   15.4631   20.8982 C   0  0  0  0  0  0  0  0  0  0  0  0
   23.1767   16.0102   21.8037 H   0  0  0  0  0  0  0  0  0  0  0  0
   21.9387   15.9886   20.4969 H   0  0  0  0  0  0  0  0  0  0  0  0
   23.6442   15.5152   20.1386 H   0  0  0  0  0  0  0  0  0  0  0  0
   20.3400   11.6045   20.8880 C   0  0  0  0  0  0  0  0  0  0  0  0
   19.7091   10.9598   21.9893 C   0  0  0  0  0  0  0  0  0  0  0  0
   20.2548   10.7888   22.9055 H   0  0  0  0  0  0  0  0  0  0  0  0
   18.3796   10.5360   21.9327 C   0  0  0  0  0  0  0  0  0  0  0  0
   17.9233   10.0717   22.7950 H   0  0  0  0  0  0  0  0  0  0  0  0
   17.6404   10.7087   20.7609 C   0  0  0  0  0  0  0  0  0  0  0  0
   16.6105   10.3856   20.7177 H   0  0  0  0  0  0  0  0  0  0  0  0
   18.2444   11.2668   19.6348 C   0  0  0  0  0  0  0  0  0  0  0  0
   17.6865   11.3676   18.7147 H   0  0  0  0  0  0  0  0  0  0  0  0
   19.5750   11.6806   19.6926 C   0  0  0  0  0  0  0  0  0  0  0  0
   20.0005   12.0642   18.7800 H   0  0  0  0  0  0  0  0  0  0  0  0
   22.9167   10.9336   20.3661 C   0  0  0  0  0  0  0  0  0  0  0  0
   22.4856    9.7171   19.7796 C   0  0  0  0  0  0  0  0  0  0  0  0
   21.4316    9.4959   19.6981 H   0  0  0  0  0  0  0  0  0  0  0  0
   23.3889    8.7821   19.2688 C   0  0  0  0  0  0  0  0  0  0  0  0
   23.0271    7.8712   18.8136 H   0  0  0  0  0  0  0  0  0  0  0  0
   24.7592    9.0300   19.3423 C   0  0  0  0  0  0  0  0  0  0  0  0
   25.4530    8.3032   18.9424 H   0  0  0  0  0  0  0  0  0  0  0  0
   25.2243   10.2065   19.9527 C   0  0  0  0  0  0  0  0  0  0  0  0
   24.3111   11.1408   20.4598 C   0  0  0  0  0  0  0  0  0  0  0  0
   24.6765   12.0514   20.9130 H   0  0  0  0  0  0  0  0  0  0  0  0
   29.3692   11.0931   20.1650 C   0  0  0  0  0  0  0  0  0  0  0  0
   30.4177   11.3571   20.2004 H   0  0  0  0  0  0  0  0  0  0  0  0
   28.5200   12.0074   19.7001 N   0  0  0  0  0  0  0  0  0  0  0  0
   27.2219   11.7255   19.6333 C   0  0  0  0  0  0  0  0  0  0  0  0
   26.5676   12.4967   19.2443 H   0  0  0  0  0  0  0  0  0  0  0  0
   26.6835   10.4930   20.0509 C   0  0  0  0  0  0  0  0  0  0  0  0
   27.5704    9.5228   20.5406 C   0  0  0  0  0  0  0  0  0  0  0  0
   27.2063    8.5579   20.8606 H   0  0  0  0  0  0  0  0  0  0  0  0
   28.9233    9.8383   20.5885 C   0  0  0  0  0  0  0  0  0  0  0  0
   29.8017    8.9153   21.0526 F   0  0  0  0  0  0  0  0  0  0  0  0
  1  2  2  0
  2  3  1  0
  2  7  1  0
  3  4  1  0
  3 14  1  1
  3 25  1  0
  4  5  1  0
  4  6  1  0
  6  7  1  0
  6  8  2  0
  7 10  1  0
  8  9  1  0
 10 11  1  0
 10 12  1  0
 10 13  1  0
 14 15  2  0
 14 23  1  0
 15 16  1  0
 15 17  1  0
 17 18  1  0
 17 19  2  0
 19 20  1  0
 19 21  1  0
 21 22  1  0
 21 23  2  0
 23 24  1  0
 25 26  2  0
 25 33  1  0
 26 27  1  0
 26 28  1  0
 28 29  1  0
 28 30  2  0
 30 31  1  0
 30 32  1  0
 32 33  2  0
 32 40  1  0
 33 34  1  0
 35 36  1  0
 35 37  2  0
 35 43  1  0
 37 38  1  0
 38 39  1  0
 38 40  2  0
 40 41  1  0
 41 42  1  0
 41 43  2  0
 43 44  1  0
M  END
> <intraLJ>
38.421    

> <intraEL>
1.380     

> <intraDihe>
53.268    

> <interLJ>
0.000     

> <interEJ>
0.000     

> <gridLJ>
-3.360    

> <gridEL>
0.000     

> <totalE>
89.709    

> <LGFE>
-3.360  

> <LE>
-0.124  

> <SMILES>
[H]/N=C1/N[C@](c2ccccc2)(c2cccc(-c3cncc(F)c3)c2)C(=O)N1C

> <atom.dprop.GFE>
-0.2170 0.0926 -0.0882 0.1400 0.0000 -0.0649 0.0892 0.0780 0.0000 0.0859 0.0000 0.0000 0.0000 -0.0721 -0.0254 0.0000 -0.0332 0.0000 -0.2301 0.0000 -0.2482 0.0000 -0.2136 0.0000 -0.0553 -0.0080 0.0000 -0.0728 0.0000 -0.1568 0.0000 -0.2022 -0.1288 0.0000 -0.1455 0.0000 -0.9020 -0.1069 0.0000 -0.2256 -0.0974 0.0000 -0.1550 -0.3970

> <atom.prop.CLASS>
FORO GEHC PRPC IMIH NCLA GEHC GEHC GENA NCLA PRPC NCLA NCLA NCLA BENC BENC NCLA BENC NCLA BENC NCLA BENC NCLA BENC NCLA BENC BENC NCLA BENC NCLA BENC NCLA BENC BENC NCLA GEHC NCLA IMIN GEHC NCLA BENC BENC NCLA BENC FLBX

> <cluster_id>
1

> <rmsd_to_cluster_rep>
0.00    

> <ligRMSD>
2.60    

> <ligCOMD>
1.10    

$$$$
bace1_merck_17_4p_79
     RDKit          3D

 44 47  0  0  1  0  0  0  0  0999 V2000
   24.2836   13.6005   18.7526 O   0  0  0  0  0  0  0  0  0  0  0  0
   24.2649   12.3707   18.8772 C   0  0  0  0  0  0  0  0  0  0  0  0
   25.1843   11.4723   19.7495 C   0  0  1  0  0  0  0  0  0  0  0  0
   24.5887   10.1186   19.4787 N   0  0  0  0  0  0  0  0  0  0  0  0
   25.2949    9.4265   19.2438 H   0  0  0  0  0  0  0  0  0  0  0  0
   23.5450   10.1577   18.5327 C   0  0  0  0  0  0  0  0  0  0  0  0
   23.3866   11.5037   18.2591 N   0  0  0  0  0  0  0  0  0  0  0  0
   22.8881    9.0232   18.0990 N   0  0  0  0  0  0  0  0  0  0  0  0
   22.1675    9.2607   17.4494 H   0  0  0  0  0  0  0  0  0  0  0  0
   22.3769   12.0125   17.3589 C   0  0  0  0  0  0  0  0  0  0  0  0
   21.7287   11.2046   16.9535 H   0  0  0  0  0  0  0  0  0  0  0  0
   22.8589   12.5306   16.5007 H   0  0  0  0  0  0  0  0  0  0  0  0
   21.7247   12.7403   17.8903 H   0  0  0  0  0  0  0  0  0  0  0  0
   26.5765   11.4384   19.1306 C   0  0  0  0  0  0  0  0  0  0  0  0
   27.3791   10.2628   19.1207 C   0  0  0  0  0  0  0  0  0  0  0  0
   26.9550    9.3115   19.4066 H   0  0  0  0  0  0  0  0  0  0  0  0
   28.7227   10.2906   18.7405 C   0  0  0  0  0  0  0  0  0  0  0  0
   29.2976    9.3759   18.7205 H   0  0  0  0  0  0  0  0  0  0  0  0
   29.3247   11.5004   18.3896 C   0  0  0  0  0  0  0  0  0  0  0  0
   30.3627   11.5221   18.0907 H   0  0  0  0  0  0  0  0  0  0  0  0
   28.5937   12.6858   18.4595 C   0  0  0  0  0  0  0  0  0  0  0  0
   29.0669   13.6286   18.2249 H   0  0  0  0  0  0  0  0  0  0  0  0
   27.2548   12.6550   18.8482 C   0  0  0  0  0  0  0  0  0  0  0  0
   26.7533   13.6056   18.9256 H   0  0  0  0  0  0  0  0  0  0  0  0
   24.8381   11.7445   21.1903 C   0  0  0  0  0  0  0  0  0  0  0  0
   25.9097   12.1017   22.0469 C   0  0  0  0  0  0  0  0  0  0  0  0
   26.9166   12.1641   21.6614 H   0  0  0  0  0  0  0  0  0  0  0  0
   25.7078   12.4075   23.3949 C   0  0  0  0  0  0  0  0  0  0  0  0
   26.5441   12.6917   24.0176 H   0  0  0  0  0  0  0  0  0  0  0  0
   24.4230   12.3504   23.9340 C   0  0  0  0  0  0  0  0  0  0  0  0
   24.2731   12.5900   24.9778 H   0  0  0  0  0  0  0  0  0  0  0  0
   23.3434   11.9605   23.1244 C   0  0  0  0  0  0  0  0  0  0  0  0
   23.5538   11.6598   21.7721 C   0  0  0  0  0  0  0  0  0  0  0  0
   22.7149   11.3767   21.1521 H   0  0  0  0  0  0  0  0  0  0  0  0
   19.3903   11.7891   24.6387 C   0  0  0  0  0  0  0  0  0  0  0  0
   18.3685   11.7626   24.9929 H   0  0  0  0  0  0  0  0  0  0  0  0
   19.6059   12.2422   23.4040 N   0  0  0  0  0  0  0  0  0  0  0  0
   20.8457   12.2989   22.9242 C   0  0  0  0  0  0  0  0  0  0  0  0
   20.9751   12.6777   21.9177 H   0  0  0  0  0  0  0  0  0  0  0  0
   21.9618   11.8787   23.6754 C   0  0  0  0  0  0  0  0  0  0  0  0
   21.7414   11.4031   24.9760 C   0  0  0  0  0  0  0  0  0  0  0  0
   22.5681   11.0821   25.5929 H   0  0  0  0  0  0  0  0  0  0  0  0
   20.4371   11.3589   25.4723 C   0  0  0  0  0  0  0  0  0  0  0  0
   20.1412   10.7808   27.0813 Cl  0  0  0  0  0  0  0  0  0  0  0  0
  1  2  2  0
  2  3  1  0
  2  7  1  0
  3  4  1  0
  3 14  1  1
  3 25  1  0
  4  5  1  0
  4  6  1  0
  6  7  1  0
  6  8  2  0
  7 10  1  0
  8  9  1  0
 10 11  1  0
 10 12  1  0
 10 13  1  0
 14 15  2  0
 14 23  1  0
 15 16  1  0
 15 17  1  0
 17 18  1  0
 17 19  2  0
 19 20  1  0
 19 21  1  0
 21 22  1  0
 21 23  2  0
 23 24  1  0
 25 26  2  0
 25 33  1  0
 26 27  1  0
 26 28  1  0
 28 29  1  0
 28 30  2  0
 30 31  1  0
 30 32  1  0
 32 33  2  0
 32 40  1  0
 33 34  1  0
 35 36  1  0
 35 37  2  0
 35 43  1  0
 37 38  1  0
 38 39  1  0
 38 40  2  0
 40 41  1  0
 41 42  1  0
 41 43  2  0
 43 44  1  0
M  END
> <intraLJ>
40.220    

> <intraEL>
1.330     

> <intraDihe>
51.869    

> <interLJ>
0.000     

> <interEJ>
0.000     

> <gridLJ>
-5.666    

> <gridEL>
0.000     

> <totalE>
87.753    

> <LGFE>
-5.666  

> <LE>
-0.210  

> <SMILES>
[H]/N=C1/N[C@](c2ccccc2)(c2cccc(-c3cncc(Cl)c3)c2)C(=O)N1C

> <atom.dprop.GFE>
-0.6340 -0.2244 -0.3330 -0.7860 0.0000 -0.2498 -0.2434 -0.9770 0.0000 -0.1379 0.0000 0.0000 0.0000 -0.1730 -0.2520 0.0000 -0.1917 0.0000 -0.1690 0.0000 -0.2108 0.0000 -0.1926 0.0000 0.0795 0.0736 0.0000 0.2774 0.0000 0.1154 0.0000 0.0579 0.1304 0.0000 0.1349 0.0000 -0.1900 0.0310 0.0000 0.0514 0.2610 0.0000 0.0630 -1.9770

> <atom.prop.CLASS>
FORO GEHC PRPC IMIH NCLA GEHC GEHC GENA NCLA PRPC NCLA NCLA NCLA BENC BENC NCLA BENC NCLA BENC NCLA BENC NCLA BENC NCLA BENC BENC NCLA BENC NCLA BENC NCLA BENC BENC NCLA GEHC NCLA IMIN GEHC NCLA BENC BENC NCLA BENC CLBX

> <cluster_id>
1

> <rmsd_to_cluster_rep>
0.00    

> <ligRMSD>
7.32    

> <ligCOMD>
1.10    

$$$$
bace1_merck_18_6b_573
     RDKit          3D

 49 52  0  0  1  0  0  0  0  0999 V2000
   22.0168    9.8022   19.6126 C   0  0  0  0  0  0  0  0  0  0  0  0
   20.7866   11.6474   18.8321 N   0  0  0  0  0  0  0  0  0  0  0  0
   20.8870   12.2411   18.0130 H   0  0  0  0  0  0  0  0  0  0  0  0
   22.8605    9.0113   20.0485 O   0  0  0  0  0  0  0  0  0  0  0  0
   22.0916   11.3547   19.5197 C   0  0  2  0  0  0  0  0  0  0  0  0
   20.7805    9.4642   19.0953 N   0  0  0  0  0  0  0  0  0  0  0  0
   18.9868   10.8453   27.4134 O   0  0  0  0  0  0  0  0  0  0  0  0
   19.9979   10.5003   18.6193 C   0  0  0  0  0  0  0  0  0  0  0  0
   18.7334   10.5620   18.0701 N   0  0  0  0  0  0  0  0  0  0  0  0
   18.5002   11.5102   17.8601 H   0  0  0  0  0  0  0  0  0  0  0  0
   20.4144    8.0749   18.9432 C   0  0  0  0  0  0  0  0  0  0  0  0
   19.3907    7.9559   18.5236 H   0  0  0  0  0  0  0  0  0  0  0  0
   20.4409    7.5644   19.9310 H   0  0  0  0  0  0  0  0  0  0  0  0
   21.1290    7.5643   18.2608 H   0  0  0  0  0  0  0  0  0  0  0  0
   23.1571   11.7646   18.5083 C   0  0  0  0  0  0  0  0  0  0  0  0
   24.2945   10.9594   18.2290 C   0  0  0  0  0  0  0  0  0  0  0  0
   24.3628    9.9379   18.5610 H   0  0  0  0  0  0  0  0  0  0  0  0
   25.3939   11.4461   17.5210 C   0  0  0  0  0  0  0  0  0  0  0  0
   26.2360   10.7990   17.3209 H   0  0  0  0  0  0  0  0  0  0  0  0
   25.4080   12.7674   17.0764 C   0  0  0  0  0  0  0  0  0  0  0  0
   26.2580   13.1435   16.5257 H   0  0  0  0  0  0  0  0  0  0  0  0
   24.3311   13.6082   17.3626 C   0  0  0  0  0  0  0  0  0  0  0  0
   24.3503   14.6390   17.0391 H   0  0  0  0  0  0  0  0  0  0  0  0
   23.2350   13.1195   18.0768 C   0  0  0  0  0  0  0  0  0  0  0  0
   22.4311   13.8034   18.3089 H   0  0  0  0  0  0  0  0  0  0  0  0
   21.8823   11.9325   20.9025 C   0  0  0  0  0  0  0  0  0  0  0  0
   22.8460   12.8568   21.3793 C   0  0  0  0  0  0  0  0  0  0  0  0
   23.6988   13.1169   20.7707 H   0  0  0  0  0  0  0  0  0  0  0  0
   22.7259   13.4779   22.6257 C   0  0  0  0  0  0  0  0  0  0  0  0
   23.4704   14.1915   22.9483 H   0  0  0  0  0  0  0  0  0  0  0  0
   21.6486   13.1687   23.4580 C   0  0  0  0  0  0  0  0  0  0  0  0
   21.5692   13.6484   24.4236 H   0  0  0  0  0  0  0  0  0  0  0  0
   20.6905   12.2283   23.0437 C   0  0  0  0  0  0  0  0  0  0  0  0
   20.8128   11.6359   21.7725 C   0  0  0  0  0  0  0  0  0  0  0  0
   20.0554   10.9427   21.4362 H   0  0  0  0  0  0  0  0  0  0  0  0
   17.4121   10.8718   25.4862 C   0  0  0  0  0  0  0  0  0  0  0  0
   16.5836   10.4828   26.0561 H   0  0  0  0  0  0  0  0  0  0  0  0
   19.6978   11.6270   25.2672 C   0  0  0  0  0  0  0  0  0  0  0  0
   20.6661   11.7924   25.7216 H   0  0  0  0  0  0  0  0  0  0  0  0
   19.5081   11.8576   23.8923 C   0  0  0  0  0  0  0  0  0  0  0  0
   18.2374   11.6371   23.3310 C   0  0  0  0  0  0  0  0  0  0  0  0
   18.0653   11.7960   22.2755 H   0  0  0  0  0  0  0  0  0  0  0  0
   17.1962   11.1460   24.1271 C   0  0  0  0  0  0  0  0  0  0  0  0
   16.2268   10.9602   23.6883 H   0  0  0  0  0  0  0  0  0  0  0  0
   18.6776   11.1154   26.0668 C   0  0  0  0  0  0  0  0  0  0  0  0
   17.9518   10.2916   28.2144 C   0  0  0  0  0  0  0  0  0  0  0  0
   18.3562   10.0918   29.2297 H   0  0  0  0  0  0  0  0  0  0  0  0
   17.5937    9.3300   27.7856 H   0  0  0  0  0  0  0  0  0  0  0  0
   17.1042   11.0044   28.3114 H   0  0  0  0  0  0  0  0  0  0  0  0
  1  4  2  0
  1  5  1  0
  1  6  1  0
  2  3  1  0
  2  5  1  0
  2  8  1  0
  5 15  1  6
  5 26  1  0
  6  8  1  0
  6 11  1  0
  7 45  1  0
  7 46  1  0
  8  9  2  0
  9 10  1  0
 11 12  1  0
 11 13  1  0
 11 14  1  0
 15 16  2  0
 15 24  1  0
 16 17  1  0
 16 18  1  0
 18 19  1  0
 18 20  2  0
 20 21  1  0
 20 22  1  0
 22 23  1  0
 22 24  2  0
 24 25  1  0
 26 27  2  0
 26 34  1  0
 27 28  1  0
 27 29  1  0
 29 30  1  0
 29 31  2  0
 31 32  1  0
 31 33  1  0
 33 34  2  0
 33 40  1  0
 34 35  1  0
 36 37  1  0
 36 43  2  0
 36 45  1  0
 38 39  1  0
 38 40  1  0
 38 45  2  0
 40 41  2  0
 41 42  1  0
 41 43  1  0
 43 44  1  0
 46 47  1  0
 46 48  1  0
 46 49  1  0
M  END
> <intraLJ>
41.437    

> <intraEL>
-1.514    

> <intraDihe>
46.947    

> <interLJ>
0.000     

> <interEJ>
0.000     

> <gridLJ>
-5.354    

> <gridEL>
0.000     

> <totalE>
81.516    

> <LGFE>
-5.354  

> <LE>
-0.191  

> <SMILES>
[H]/N=C1\N[C@@](c2ccccc2)(c2cccc(-c3cccc(OC)c3)c2)C(=O)N1C

> <atom.dprop.GFE>
-0.1119 -0.5010 0.0000 -1.1330 -0.1029 -0.1495 -0.9270 -0.1921 -1.3150 0.0000 0.3087 0.0000 0.0000 0.0000 -0.1897 -0.1962 0.0000 -0.2084 0.0000 -0.1455 0.0000 -0.0730 0.0000 -0.1294 0.0000 -0.0055 -0.0202 0.0000 -0.0110 0.0000 0.0147 0.0000 0.0094 0.0640 0.0000 -0.0202 0.0000 0.0117 0.0000 0.0254 0.0772 0.0000 -0.0219 0.0000 -0.1451 -0.2664 0.0000 0.0000 0.0000

> <atom.prop.CLASS>
GEHC IMIH NCLA FORO PRPC GEHC DMEO GEHC GENA NCLA PRPC NCLA NCLA NCLA BENC BENC NCLA BENC NCLA BENC NCLA BENC NCLA BENC NCLA BENC BENC NCLA BENC NCLA BENC NCLA BENC BENC NCLA BENC NCLA BENC NCLA BENC BENC NCLA BENC NCLA BENC PRPC NCLA NCLA NCLA

> <cluster_id>
1

> <rmsd_to_cluster_rep>
0.00    

> <ligRMSD>
3.97    

> <ligCOMD>
1.00    

$$$$
bace1_merck_19_7b_152
     RDKit          3D

 44 47  0  0  1  0  0  0  0  0999 V2000
   21.9704   12.9893   21.0821 O   0  0  0  0  0  0  0  0  0  0  0  0
   21.7556   11.9888   20.3889 C   0  0  0  0  0  0  0  0  0  0  0  0
   20.3888   11.3875   19.9787 C   0  0  2  0  0  0  0  0  0  0  0  0
   20.8316   10.0972   19.3494 N   0  0  0  0  0  0  0  0  0  0  0  0
   20.3653    9.2792   19.7330 H   0  0  0  0  0  0  0  0  0  0  0  0
   22.2334    9.9729   19.2735 C   0  0  0  0  0  0  0  0  0  0  0  0
   22.7033   11.1379   19.8543 N   0  0  0  0  0  0  0  0  0  0  0  0
   22.8600    8.8776   18.7102 N   0  0  0  0  0  0  0  0  0  0  0  0
   23.8527    8.9804   18.7514 H   0  0  0  0  0  0  0  0  0  0  0  0
   24.1086   11.4181   20.0374 C   0  0  0  0  0  0  0  0  0  0  0  0
   24.7559   10.6407   19.5749 H   0  0  0  0  0  0  0  0  0  0  0  0
   24.3515   11.4686   21.1219 H   0  0  0  0  0  0  0  0  0  0  0  0
   24.3622   12.3961   19.5723 H   0  0  0  0  0  0  0  0  0  0  0  0
   19.8284   12.2189   18.8239 C   0  0  0  0  0  0  0  0  0  0  0  0
   18.4765   12.6599   18.8582 C   0  0  0  0  0  0  0  0  0  0  0  0
   17.8828   12.5698   19.7533 H   0  0  0  0  0  0  0  0  0  0  0  0
   17.8506   13.2309   17.7502 C   0  0  0  0  0  0  0  0  0  0  0  0
   16.8300   13.5784   17.8256 H   0  0  0  0  0  0  0  0  0  0  0  0
   18.5384   13.3404   16.5423 C   0  0  0  0  0  0  0  0  0  0  0  0
   18.0553   13.7820   15.6828 H   0  0  0  0  0  0  0  0  0  0  0  0
   19.8414   12.8492   16.4381 C   0  0  0  0  0  0  0  0  0  0  0  0
   20.3649   12.9042   15.4945 H   0  0  0  0  0  0  0  0  0  0  0  0
   20.4664   12.2825   17.5523 C   0  0  0  0  0  0  0  0  0  0  0  0
   21.4685   11.8971   17.4331 H   0  0  0  0  0  0  0  0  0  0  0  0
   19.6809   10.9566   21.2379 C   0  0  0  0  0  0  0  0  0  0  0  0
   18.4736   10.2352   21.0777 C   0  0  0  0  0  0  0  0  0  0  0  0
   18.1058   10.0061   20.0881 H   0  0  0  0  0  0  0  0  0  0  0  0
   17.7237    9.7985   22.1727 C   0  0  0  0  0  0  0  0  0  0  0  0
   16.8068    9.2484   22.0159 H   0  0  0  0  0  0  0  0  0  0  0  0
   18.1633   10.0679   23.4700 C   0  0  0  0  0  0  0  0  0  0  0  0
   17.5830    9.7165   24.3120 H   0  0  0  0  0  0  0  0  0  0  0  0
   19.3551   10.7827   23.6726 C   0  0  0  0  0  0  0  0  0  0  0  0
   20.1005   11.2204   22.5654 C   0  0  0  0  0  0  0  0  0  0  0  0
   21.0254   11.7556   22.7274 H   0  0  0  0  0  0  0  0  0  0  0  0
   20.7844   11.6445   27.5787 C   0  0  0  0  0  0  0  0  0  0  0  0
   21.1119   11.8965   28.5789 H   0  0  0  0  0  0  0  0  0  0  0  0
   19.4898   11.7880   27.3001 N   0  0  0  0  0  0  0  0  0  0  0  0
   19.0320   11.4973   26.0838 C   0  0  0  0  0  0  0  0  0  0  0  0
   17.9750   11.6462   25.9005 H   0  0  0  0  0  0  0  0  0  0  0  0
   19.8735   11.0321   25.0536 C   0  0  0  0  0  0  0  0  0  0  0  0
   21.2413   10.8728   25.3471 C   0  0  0  0  0  0  0  0  0  0  0  0
   21.9348   10.5352   24.5897 H   0  0  0  0  0  0  0  0  0  0  0  0
   21.7122   11.1882   26.6289 C   0  0  0  0  0  0  0  0  0  0  0  0
   22.7562   11.0855   26.8791 H   0  0  0  0  0  0  0  0  0  0  0  0
  1  2  2  0
  2  3  1  0
  2  7  1  0
  3  4  1  0
  3 14  1  6
  3 25  1  0
  4  5  1  0
  4  6  1  0
  6  7  1  0
  6  8  2  0
  7 10  1  0
  8  9  1  0
 10 11  1  0
 10 12  1  0
 10 13  1  0
 14 15  2  0
 14 23  1  0
 15 16  1  0
 15 17  1  0
 17 18  1  0
 17 19  2  0
 19 20  1  0
 19 21  1  0
 21 22  1  0
 21 23  2  0
 23 24  1  0
 25 26  2  0
 25 33  1  0
 26 27  1  0
 26 28  1  0
 28 29  1  0
 28 30  2  0
 30 31  1  0
 30 32  1  0
 32 33  2  0
 32 40  1  0
 33 34  1  0
 35 36  1  0
 35 37  2  0
 35 43  1  0
 37 38  1  0
 38 39  1  0
 38 40  2  0
 40 41  1  0
 41 42  1  0
 41 43  2  0
 43 44  1  0
M  END
> <intraLJ>
43.630    

> <intraEL>
0.777     

> <intraDihe>
50.820    

> <interLJ>
0.000     

> <interEJ>
0.000     

> <gridLJ>
-6.007    

> <gridEL>
0.000     

> <totalE>
89.220    

> <LGFE>
-6.007  

> <LE>
-0.231  

> <SMILES>
[H]/N=C1/N[C@@](c2ccccc2)(c2cccc(-c3cccnc3)c2)C(=O)N1C

> <atom.dprop.GFE>
-0.3810 0.0493 -0.3127 -0.9230 0.0000 -0.1119 -0.1575 -0.9770 0.0000 -0.2787 0.0000 0.0000 0.0000 -0.2498 -0.2108 0.0000 -0.2343 0.0000 -0.1927 0.0000 -0.2457 0.0000 -0.1814 0.0000 -0.0254 -0.0332 0.0000 -0.0162 0.0000 0.0693 0.0000 0.1723 0.2007 0.0000 -0.3636 0.0000 -1.5840 -0.2448 0.0000 0.0630 0.1855 0.0000 -0.0235 0.0000

> <atom.prop.CLASS>
FORO GEHC PRPC IMIH NCLA GEHC GEHC GENA NCLA PRPC NCLA NCLA NCLA BENC BENC NCLA BENC NCLA BENC NCLA BENC NCLA BENC NCLA BENC BENC NCLA BENC NCLA BENC NCLA BENC BENC NCLA GEHC NCLA IMIN GEHC NCLA BENC BENC NCLA BENC NCLA

> <cluster_id>
1

> <rmsd_to_cluster_rep>
0.00    

> <ligRMSD>
4.73    

> <ligCOMD>
1.03    

$$$$
bace1_merck_20_13a_1140
     RDKit          3D

 38 40  0  0  1  0  0  0  0  0999 V2000
   23.2688   13.2280   20.2029 C   0  0  0  0  0  0  0  0  0  0  0  0
   23.0198   11.8425   22.1297 N   0  0  0  0  0  0  0  0  0  0  0  0
   23.7572   11.1952   22.3948 H   0  0  0  0  0  0  0  0  0  0  0  0
   23.3562   13.6593   19.0484 O   0  0  0  0  0  0  0  0  0  0  0  0
   22.7851   11.8715   20.6591 C   0  0  1  0  0  0  0  0  0  0  0  0
   21.2477   11.8219   20.5465 C   0  0  0  0  0  0  0  0  0  0  0  0
   20.7591   12.6453   21.1094 H   0  0  0  0  0  0  0  0  0  0  0  0
   20.8624   10.8552   20.9382 H   0  0  0  0  0  0  0  0  0  0  0  0
   20.9365   11.9028   19.4825 H   0  0  0  0  0  0  0  0  0  0  0  0
   23.5319   13.8823   21.3877 N   0  0  0  0  0  0  0  0  0  0  0  0
   23.4396   13.1262   22.5500 C   0  0  0  0  0  0  0  0  0  0  0  0
   23.6942   13.4072   23.8770 N   0  0  0  0  0  0  0  0  0  0  0  0
   23.5119   12.6023   24.4397 H   0  0  0  0  0  0  0  0  0  0  0  0
   24.0986   15.2120   21.3710 C   0  0  0  0  0  0  0  0  0  0  0  0
   24.3229   15.5851   22.3951 H   0  0  0  0  0  0  0  0  0  0  0  0
   23.3832   15.9197   20.8978 H   0  0  0  0  0  0  0  0  0  0  0  0
   25.0449   15.2212   20.7862 H   0  0  0  0  0  0  0  0  0  0  0  0
   23.6333   10.8193   20.0037 C   0  0  0  0  0  0  0  0  0  0  0  0
   23.0969    9.9448   19.0315 C   0  0  0  0  0  0  0  0  0  0  0  0
   22.0421    9.9548   18.8031 H   0  0  0  0  0  0  0  0  0  0  0  0
   23.9191    9.0778   18.3010 C   0  0  0  0  0  0  0  0  0  0  0  0
   23.4904    8.4354   17.5454 H   0  0  0  0  0  0  0  0  0  0  0  0
   25.2952    9.0492   18.5397 C   0  0  0  0  0  0  0  0  0  0  0  0
   25.9208    8.3802   17.9648 H   0  0  0  0  0  0  0  0  0  0  0  0
   25.8526    9.8704   19.5318 C   0  0  0  0  0  0  0  0  0  0  0  0
   25.0222   10.7327   20.2579 C   0  0  0  0  0  0  0  0  0  0  0  0
   25.4624   11.3856   20.9984 H   0  0  0  0  0  0  0  0  0  0  0  0
   30.0738    9.8139   20.3469 C   0  0  0  0  0  0  0  0  0  0  0  0
   31.1328    9.7924   20.5556 H   0  0  0  0  0  0  0  0  0  0  0  0
   27.7921    9.3961   21.0509 C   0  0  0  0  0  0  0  0  0  0  0  0
   27.0962    9.0494   21.8010 H   0  0  0  0  0  0  0  0  0  0  0  0
   27.3226    9.8572   19.8086 C   0  0  0  0  0  0  0  0  0  0  0  0
   28.2390   10.3064   18.8389 C   0  0  0  0  0  0  0  0  0  0  0  0
   27.8927   10.6724   17.8823 H   0  0  0  0  0  0  0  0  0  0  0  0
   29.6123   10.2867   19.1114 C   0  0  0  0  0  0  0  0  0  0  0  0
   30.3159   10.6314   18.3682 H   0  0  0  0  0  0  0  0  0  0  0  0
   29.1636    9.3690   21.3139 C   0  0  0  0  0  0  0  0  0  0  0  0
   29.7301    8.7746   22.8444 Cl  0  0  0  0  0  0  0  0  0  0  0  0
  1  4  2  0
  1  5  1  0
  1 10  1  0
  2  3  1  0
  2  5  1  0
  2 11  1  0
  5  6  1  1
  5 18  1  0
  6  7  1  0
  6  8  1  0
  6  9  1  0
 10 11  1  0
 10 14  1  0
 11 12  2  0
 12 13  1  0
 14 15  1  0
 14 16  1  0
 14 17  1  0
 18 19  2  0
 18 26  1  0
 19 20  1  0
 19 21  1  0
 21 22  1  0
 21 23  2  0
 23 24  1  0
 23 25  1  0
 25 26  2  0
 25 32  1  0
 26 27  1  0
 28 29  1  0
 28 35  2  0
 28 37  1  0
 30 31  1  0
 30 32  1  0
 30 37  2  0
 32 33  2  0
 33 34  1  0
 33 35  1  0
 35 36  1  0
 37 38  1  0
M  END
> <intraLJ>
22.359    

> <intraEL>
-7.338    

> <intraDihe>
46.420    

> <interLJ>
0.000     

> <interEJ>
0.000     

> <gridLJ>
-4.178    

> <gridEL>
0.000     

> <totalE>
57.262    

> <LGFE>
-4.178  

> <LE>
-0.190  

> <SMILES>
[H]/N=C1\N[C@](C)(c2cccc(-c3cccc(Cl)c3)c2)C(=O)N1C

> <atom.dprop.GFE>
-0.0057 -0.0480 0.0000 -0.5630 0.0336 -0.0882 0.0000 0.0000 0.0000 -0.0017 -0.0619 0.0850 0.0000 0.1185 0.0000 0.0000 0.0000 -0.1648 -0.1597 0.0000 -0.1787 0.0000 -0.1692 0.0000 -0.2256 -0.1085 0.0000 -0.0215 0.0000 -0.0974 0.0000 -0.2520 -0.1917 0.0000 -0.1844 0.0000 -0.0294 -1.8640

> <atom.prop.CLASS>
GEHC IMIH NCLA FORO PRPC PRPC NCLA NCLA NCLA GEHC GEHC GENA NCLA PRPC NCLA NCLA NCLA BENC BENC NCLA BENC NCLA BENC NCLA BENC BENC NCLA BENC NCLA BENC NCLA BENC BENC NCLA BENC NCLA BENC CLBX

> <cluster_id>
1

> <rmsd_to_cluster_rep>
0.00    

> <ligRMSD>
2.29    

> <ligCOMD>
1.07    

$$$$
bace1_merck_21_13b_483
     RDKit          3D

 41 43  0  0  1  0  0  0  0  0999 V2000
   22.8905   13.2249   20.0890 C   0  0  0  0  0  0  0  0  0  0  0  0
   22.4945   12.0495   22.1285 N   0  0  0  0  0  0  0  0  0  0  0  0
   22.9951   11.2732   22.5530 H   0  0  0  0  0  0  0  0  0  0  0  0
   23.0799   13.5285   18.9073 O   0  0  0  0  0  0  0  0  0  0  0  0
   22.3338   11.9406   20.6557 C   0  0  1  0  0  0  0  0  0  0  0  0
   20.8121   11.7672   20.3927 C   0  0  0  0  0  0  0  0  0  0  0  0
   20.2563   12.3665   21.1556 H   0  0  0  0  0  0  0  0  0  0  0  0
   20.5185   10.7128   20.5879 H   0  0  0  0  0  0  0  0  0  0  0  0
   20.2303   12.2324   19.0465 C   0  0  0  0  0  0  0  0  0  0  0  0
   19.1690   11.9198   18.9536 H   0  0  0  0  0  0  0  0  0  0  0  0
   20.8010   11.7938   18.2007 H   0  0  0  0  0  0  0  0  0  0  0  0
   20.2795   13.3387   18.9614 H   0  0  0  0  0  0  0  0  0  0  0  0
   23.1925   13.9574   21.2171 N   0  0  0  0  0  0  0  0  0  0  0  0
   22.9974   13.3308   22.4416 C   0  0  0  0  0  0  0  0  0  0  0  0
   23.1831   13.7414   23.7417 N   0  0  0  0  0  0  0  0  0  0  0  0
   22.9179   13.0130   24.3714 H   0  0  0  0  0  0  0  0  0  0  0  0
   23.7751   15.2762   21.1052 C   0  0  0  0  0  0  0  0  0  0  0  0
   23.9816   15.7300   22.1000 H   0  0  0  0  0  0  0  0  0  0  0  0
   23.0817   15.9516   20.5577 H   0  0  0  0  0  0  0  0  0  0  0  0
   24.7347   15.2244   20.5452 H   0  0  0  0  0  0  0  0  0  0  0  0
   23.1480   10.7702   20.1319 C   0  0  0  0  0  0  0  0  0  0  0  0
   22.6062    9.7348   19.3245 C   0  0  0  0  0  0  0  0  0  0  0  0
   21.5485    9.6645   19.1305 H   0  0  0  0  0  0  0  0  0  0  0  0
   23.4200    8.7845   18.6979 C   0  0  0  0  0  0  0  0  0  0  0  0
   22.9776    8.0263   18.0676 H   0  0  0  0  0  0  0  0  0  0  0  0
   24.8006    8.8134   18.8838 C   0  0  0  0  0  0  0  0  0  0  0  0
   25.4193    8.0725   18.3960 H   0  0  0  0  0  0  0  0  0  0  0  0
   25.3712    9.7856   19.7160 C   0  0  0  0  0  0  0  0  0  0  0  0
   24.5505   10.7419   20.3297 C   0  0  0  0  0  0  0  0  0  0  0  0
   25.0091   11.5052   20.9425 H   0  0  0  0  0  0  0  0  0  0  0  0
   29.6180    9.8699   20.3477 C   0  0  0  0  0  0  0  0  0  0  0  0
   30.6854    9.8842   20.5083 H   0  0  0  0  0  0  0  0  0  0  0  0
   27.4434    8.9052   20.8168 C   0  0  0  0  0  0  0  0  0  0  0  0
   26.8383    8.1756   21.3350 H   0  0  0  0  0  0  0  0  0  0  0  0
   26.8481    9.8219   19.9343 C   0  0  0  0  0  0  0  0  0  0  0  0
   27.6452   10.7671   19.2615 C   0  0  0  0  0  0  0  0  0  0  0  0
   27.1986   11.4821   18.5845 H   0  0  0  0  0  0  0  0  0  0  0  0
   29.0285   10.7909   19.4723 C   0  0  0  0  0  0  0  0  0  0  0  0
   29.6414   11.5166   18.9585 H   0  0  0  0  0  0  0  0  0  0  0  0
   28.8251    8.9291   21.0163 C   0  0  0  0  0  0  0  0  0  0  0  0
   29.5536    7.7837   22.0978 Cl  0  0  0  0  0  0  0  0  0  0  0  0
  1  4  2  0
  1  5  1  0
  1 13  1  0
  2  3  1  0
  2  5  1  0
  2 14  1  0
  5  6  1  1
  5 21  1  0
  6  7  1  0
  6  8  1  0
  6  9  1  0
  9 10  1  0
  9 11  1  0
  9 12  1  0
 13 14  1  0
 13 17  1  0
 14 15  2  0
 15 16  1  0
 17 18  1  0
 17 19  1  0
 17 20  1  0
 21 22  2  0
 21 29  1  0
 22 23  1  0
 22 24  1  0
 24 25  1  0
 24 26  2  0
 26 27  1  0
 26 28  1  0
 28 29  2  0
 28 35  1  0
 29 30  1  0
 31 32  1  0
 31 38  2  0
 31 40  1  0
 33 34  1  0
 33 35  1  0
 33 40  2  0
 35 36  2  0
 36 37  1  0
 36 38  1  0
 38 39  1  0
 40 41  1  0
M  END
> <intraLJ>
23.700    

> <intraEL>
-4.698    

> <intraDihe>
38.682    

> <interLJ>
0.000     

> <interEJ>
0.000     

> <gridLJ>
-4.406    

> <gridEL>
0.000     

> <totalE>
53.279    

> <LGFE>
-4.406  

> <LE>
-0.192  

> <SMILES>
[H]/N=C1\N[C@](CC)(c2cccc(-c3cccc(Cl)c3)c2)C(=O)N1C

> <atom.dprop.GFE>
-0.0057 0.1400 0.0000 -0.5630 0.0336 -0.1895 0.0000 0.0000 -0.3223 0.0000 0.0000 0.0000 -0.0017 -0.0619 0.0850 0.0000 0.0523 0.0000 0.0000 0.0000 -0.0245 -0.0080 0.0000 -0.1054 0.0000 -0.1787 0.0000 -0.2022 -0.1024 0.0000 -0.1550 0.0000 -0.0974 0.0000 -0.2256 -0.2520 0.0000 -0.2148 0.0000 -0.1430 -1.8640

> <atom.prop.CLASS>
GEHC IMIH NCLA FORO PRPC PRPC NCLA NCLA PRPC NCLA NCLA NCLA GEHC GEHC GENA NCLA PRPC NCLA NCLA NCLA BENC BENC NCLA BENC NCLA BENC NCLA BENC BENC NCLA BENC NCLA BENC NCLA BENC BENC NCLA BENC NCLA BENC CLBX

> <cluster_id>
1

> <rmsd_to_cluster_rep>
0.00    

> <ligRMSD>
2.37    

> <ligCOMD>
1.11    

$$$$
bace1_merck_22_13c_661
     RDKit          3D

 44 46  0  0  1  0  0  0  0  0999 V2000
   22.9081   13.1326   20.1716 C   0  0  0  0  0  0  0  0  0  0  0  0
   22.4159   11.7839   22.0711 N   0  0  0  0  0  0  0  0  0  0  0  0
   22.9187   10.9886   22.4560 H   0  0  0  0  0  0  0  0  0  0  0  0
   23.1821   13.5354   19.0379 O   0  0  0  0  0  0  0  0  0  0  0  0
   22.3303   11.7962   20.5855 C   0  0  1  0  0  0  0  0  0  0  0  0
   20.8109   11.5909   20.1882 C   0  0  0  0  0  0  0  0  0  0  0  0
   19.8475   12.3724   21.1206 C   0  0  0  0  0  0  0  0  0  0  0  0
   18.8066   12.2837   20.7431 H   0  0  0  0  0  0  0  0  0  0  0  0
   20.1153   13.4496   21.1432 H   0  0  0  0  0  0  0  0  0  0  0  0
   19.8648   11.9725   22.1551 H   0  0  0  0  0  0  0  0  0  0  0  0
   20.5408   10.5176   20.2794 H   0  0  0  0  0  0  0  0  0  0  0  0
   20.5184   12.0877   18.7492 C   0  0  0  0  0  0  0  0  0  0  0  0
   19.5009   11.7672   18.4402 H   0  0  0  0  0  0  0  0  0  0  0  0
   21.2457   11.6847   18.0165 H   0  0  0  0  0  0  0  0  0  0  0  0
   20.5557   13.1962   18.7022 H   0  0  0  0  0  0  0  0  0  0  0  0
   23.1210   13.7750   21.3734 N   0  0  0  0  0  0  0  0  0  0  0  0
   22.8586   13.0468   22.5257 C   0  0  0  0  0  0  0  0  0  0  0  0
   22.9411   13.3599   23.8635 N   0  0  0  0  0  0  0  0  0  0  0  0
   22.6540   12.5793   24.4161 H   0  0  0  0  0  0  0  0  0  0  0  0
   23.6583   15.1176   21.4098 C   0  0  0  0  0  0  0  0  0  0  0  0
   23.7809   15.4939   22.4499 H   0  0  0  0  0  0  0  0  0  0  0  0
   22.9775   15.8132   20.8719 H   0  0  0  0  0  0  0  0  0  0  0  0
   24.6542   15.1440   20.9154 H   0  0  0  0  0  0  0  0  0  0  0  0
   23.2411   10.6933   20.0426 C   0  0  0  0  0  0  0  0  0  0  0  0
   22.7951    9.6758   19.1577 C   0  0  0  0  0  0  0  0  0  0  0  0
   21.7517    9.5581   18.9172 H   0  0  0  0  0  0  0  0  0  0  0  0
   23.6807    8.8027   18.5171 C   0  0  0  0  0  0  0  0  0  0  0  0
   23.3035    8.0636   17.8247 H   0  0  0  0  0  0  0  0  0  0  0  0
   25.0470    8.8783   18.7741 C   0  0  0  0  0  0  0  0  0  0  0  0
   25.7211    8.1942   18.2766 H   0  0  0  0  0  0  0  0  0  0  0  0
   25.5306    9.8194   19.6918 C   0  0  0  0  0  0  0  0  0  0  0  0
   24.6365   10.7049   20.3147 C   0  0  0  0  0  0  0  0  0  0  0  0
   25.0316   11.4477   20.9927 H   0  0  0  0  0  0  0  0  0  0  0  0
   29.7359   10.0287   20.5383 C   0  0  0  0  0  0  0  0  0  0  0  0
   30.7929   10.0749   20.7532 H   0  0  0  0  0  0  0  0  0  0  0  0
   27.5921    8.9264   20.8036 C   0  0  0  0  0  0  0  0  0  0  0  0
   27.0007    8.1235   21.2192 H   0  0  0  0  0  0  0  0  0  0  0  0
   26.9931    9.8982   19.9853 C   0  0  0  0  0  0  0  0  0  0  0  0
   27.7729   10.9388   19.4459 C   0  0  0  0  0  0  0  0  0  0  0  0
   27.3230   11.6963   18.8191 H   0  0  0  0  0  0  0  0  0  0  0  0
   29.1425   11.0034   19.7264 C   0  0  0  0  0  0  0  0  0  0  0  0
   29.7416   11.8024   19.3154 H   0  0  0  0  0  0  0  0  0  0  0  0
   28.9605    8.9929   21.0734 C   0  0  0  0  0  0  0  0  0  0  0  0
   29.6945    7.7826   22.0774 Cl  0  0  0  0  0  0  0  0  0  0  0  0
  1  4  2  0
  1  5  1  0
  1 16  1  0
  2  3  1  0
  2  5  1  0
  2 17  1  0
  5  6  1  1
  5 24  1  0
  6  7  1  0
  6 11  1  0
  6 12  1  0
  7  8  1  0
  7  9  1  0
  7 10  1  0
 12 13  1  0
 12 14  1  0
 12 15  1  0
 16 17  1  0
 16 20  1  0
 17 18  2  0
 18 19  1  0
 20 21  1  0
 20 22  1  0
 20 23  1  0
 24 25  2  0
 24 32  1  0
 25 26  1  0
 25 27  1  0
 27 28  1  0
 27 29  2  0
 29 30  1  0
 29 31  1  0
 31 32  2  0
 31 38  1  0
 32 33  1  0
 34 35  1  0
 34 41  2  0
 34 43  1  0
 36 37  1  0
 36 38  1  0
 36 43  2  0
 38 39  2  0
 39 40  1  0
 39 41  1  0
 41 42  1  0
 43 44  1  0
M  END
> <intraLJ>
24.388    

> <intraEL>
-2.084    

> <intraDihe>
40.206    

> <interLJ>
0.000     

> <interEJ>
0.000     

> <gridLJ>
-4.442    

> <gridEL>
0.000     

> <totalE>
58.068    

> <LGFE>
-4.442  

> <LE>
-0.185  

> <SMILES>
[H]/N=C1\N[C@@](c2cccc(-c3cccc(Cl)c3)c2)(C(C)C)C(=O)N1C

> <atom.dprop.GFE>
-0.0057 0.1400 0.0000 -0.5630 0.0336 -0.1895 -0.1016 0.0000 0.0000 0.0000 0.0000 -0.3223 0.0000 0.0000 0.0000 -0.0539 -0.0619 0.0850 0.0000 0.0523 0.0000 0.0000 0.0000 -0.1109 -0.0080 0.0000 -0.1054 0.0000 -0.1692 0.0000 -0.2022 -0.1024 0.0000 -0.1550 0.0000 -0.0974 0.0000 -0.2520 -0.1446 0.0000 -0.2148 0.0000 -0.0294 -1.8640

> <atom.prop.CLASS>
GEHC IMIH NCLA FORO PRPC PRPC PRPC NCLA NCLA NCLA NCLA PRPC NCLA NCLA NCLA GEHC GEHC GENA NCLA PRPC NCLA NCLA NCLA BENC BENC NCLA BENC NCLA BENC NCLA BENC BENC NCLA BENC NCLA BENC NCLA BENC BENC NCLA BENC NCLA BENC CLBX

> <cluster_id>
1

> <rmsd_to_cluster_rep>
0.00    

> <ligRMSD>
2.21    

> <ligCOMD>
1.11    

$$$$
bace1_merck_23_13d_776
     RDKit          3D

 42 45  0  0  1  0  0  0  0  0999 V2000
   23.0023   13.1507   19.9426 C   0  0  0  0  0  0  0  0  0  0  0  0
   22.5048   11.7887   21.8326 N   0  0  0  0  0  0  0  0  0  0  0  0
   23.0062   10.9971   22.2274 H   0  0  0  0  0  0  0  0  0  0  0  0
   23.2695   13.5603   18.8104 O   0  0  0  0  0  0  0  0  0  0  0  0
   22.4540   11.8022   20.3476 C   0  0  1  0  0  0  0  0  0  0  0  0
   20.9944   11.5036   20.0328 C   0  0  0  0  0  0  0  0  0  0  0  0
   19.9829   12.6477   20.0408 C   0  0  0  0  0  0  0  0  0  0  0  0
   20.3523   13.6436   20.2152 H   0  0  0  0  0  0  0  0  0  0  0  0
   18.9976   12.4077   20.4068 H   0  0  0  0  0  0  0  0  0  0  0  0
   20.6365   10.5530   20.4020 H   0  0  0  0  0  0  0  0  0  0  0  0
   20.3813   11.9919   18.7198 C   0  0  0  0  0  0  0  0  0  0  0  0
   19.6397   11.3494   18.2730 H   0  0  0  0  0  0  0  0  0  0  0  0
   21.0020   12.5710   18.0590 H   0  0  0  0  0  0  0  0  0  0  0  0
   23.1934   13.7931   21.1473 N   0  0  0  0  0  0  0  0  0  0  0  0
   22.9270   13.0571   22.2940 C   0  0  0  0  0  0  0  0  0  0  0  0
   22.9953   13.3690   23.6325 N   0  0  0  0  0  0  0  0  0  0  0  0
   22.7129   12.5843   24.1819 H   0  0  0  0  0  0  0  0  0  0  0  0
   23.7148   15.1424   21.1933 C   0  0  0  0  0  0  0  0  0  0  0  0
   23.8235   15.5162   22.2358 H   0  0  0  0  0  0  0  0  0  0  0  0
   23.0309   15.8322   20.6519 H   0  0  0  0  0  0  0  0  0  0  0  0
   24.7149   15.1827   20.7082 H   0  0  0  0  0  0  0  0  0  0  0  0
   23.3734   10.7174   19.8109 C   0  0  0  0  0  0  0  0  0  0  0  0
   22.9793    9.8037   18.7992 C   0  0  0  0  0  0  0  0  0  0  0  0
   21.9639    9.7736   18.4367 H   0  0  0  0  0  0  0  0  0  0  0  0
   23.8971    8.9419   18.1853 C   0  0  0  0  0  0  0  0  0  0  0  0
   23.5696    8.2765   17.3993 H   0  0  0  0  0  0  0  0  0  0  0  0
   25.2345    8.9436   18.5790 C   0  0  0  0  0  0  0  0  0  0  0  0
   25.9333    8.2751   18.0948 H   0  0  0  0  0  0  0  0  0  0  0  0
   25.6565    9.7961   19.6075 C   0  0  0  0  0  0  0  0  0  0  0  0
   24.7330   10.6607   20.2133 C   0  0  0  0  0  0  0  0  0  0  0  0
   25.0800   11.3348   20.9833 H   0  0  0  0  0  0  0  0  0  0  0  0
   29.7654    9.8135   20.8591 C   0  0  0  0  0  0  0  0  0  0  0  0
   30.7973    9.8119   21.1765 H   0  0  0  0  0  0  0  0  0  0  0  0
   27.5217    8.9089   21.0290 C   0  0  0  0  0  0  0  0  0  0  0  0
   26.8285    8.2102   21.4743 H   0  0  0  0  0  0  0  0  0  0  0  0
   27.0864    9.8070   20.0405 C   0  0  0  0  0  0  0  0  0  0  0  0
   27.9980   10.7123   19.4649 C   0  0  0  0  0  0  0  0  0  0  0  0
   27.6744   11.4131   18.7077 H   0  0  0  0  0  0  0  0  0  0  0  0
   29.3353   10.7153   19.8777 C   0  0  0  0  0  0  0  0  0  0  0  0
   30.0353   11.4106   19.4386 H   0  0  0  0  0  0  0  0  0  0  0  0
   28.8589    8.9125   21.4309 C   0  0  0  0  0  0  0  0  0  0  0  0
   29.3907    7.7923   22.6448 Cl  0  0  0  0  0  0  0  0  0  0  0  0
  1  4  2  0
  1  5  1  0
  1 14  1  0
  2  3  1  0
  2  5  1  0
  2 15  1  0
  5  6  1  1
  5 22  1  0
  6  7  1  0
  6 10  1  0
  6 11  1  0
  7  8  1  0
  7  9  1  0
  7 11  1  0
 11 12  1  0
 11 13  1  0
 14 15  1  0
 14 18  1  0
 15 16  2  0
 16 17  1  0
 18 19  1  0
 18 20  1  0
 18 21  1  0
 22 23  2  0
 22 30  1  0
 23 24  1  0
 23 25  1  0
 25 26  1  0
 25 27  2  0
 27 28  1  0
 27 29  1  0
 29 30  2  0
 29 36  1  0
 30 31  1  0
 32 33  1  0
 32 39  2  0
 32 41  1  0
 34 35  1  0
 34 36  1  0
 34 41  2  0
 36 37  2  0
 37 38  1  0
 37 39  1  0
 39 40  1  0
 41 42  1  0
M  END
> <intraLJ>
21.852    

> <intraEL>
-2.385    

> <intraDihe>
40.377    

> <interLJ>
0.000     

> <interEJ>
0.000     

> <gridLJ>
-4.523    

> <gridEL>
0.000     

> <totalE>
55.320    

> <LGFE>
-4.523  

> <LE>
-0.188  

> <SMILES>
[H]/N=C1\N[C@@](c2cccc(-c3cccc(Cl)c3)c2)(C2CC2)C(=O)N1C

> <atom.dprop.GFE>
0.0210 0.3790 0.0000 -0.5630 0.0336 -0.1911 -0.1835 0.0000 0.0000 0.0000 -0.3223 0.0000 0.0000 -0.0017 -0.0619 0.0850 0.0000 0.0523 0.0000 0.0000 0.0000 -0.1109 -0.1597 0.0000 -0.1787 0.0000 -0.1692 0.0000 -0.2022 -0.1024 0.0000 -0.1550 0.0000 -0.0974 0.0000 -0.2520 -0.2657 0.0000 -0.1844 0.0000 -0.0294 -1.8640

> <atom.prop.CLASS>
GEHC IMIH NCLA FORO PRPC PRPC PRPC NCLA NCLA NCLA PRPC NCLA NCLA GEHC GEHC GENA NCLA PRPC NCLA NCLA NCLA BENC BENC NCLA BENC NCLA BENC NCLA BENC BENC NCLA BENC NCLA BENC NCLA BENC BENC NCLA BENC NCLA BENC CLBX

> <cluster_id>
1

> <rmsd_to_cluster_rep>
0.00    

> <ligRMSD>
2.27    

> <ligCOMD>
1.17    

$$$$
bace1_merck_24_13e_698
     RDKit          3D

 45 48  0  0  1  0  0  0  0  0999 V2000
   23.0135   13.2816   20.1659 C   0  0  0  0  0  0  0  0  0  0  0  0
   22.5471   11.8966   22.0515 N   0  0  0  0  0  0  0  0  0  0  0  0
   23.0581   11.1037   22.4305 H   0  0  0  0  0  0  0  0  0  0  0  0
   23.2609   13.7045   19.0345 O   0  0  0  0  0  0  0  0  0  0  0  0
   22.4813   11.9312   20.5665 C   0  0  1  0  0  0  0  0  0  0  0  0
   20.9893   11.6600   20.2285 C   0  0  0  0  0  0  0  0  0  0  0  0
   19.9535   12.4838   21.0441 C   0  0  0  0  0  0  0  0  0  0  0  0
   20.3173   13.4672   21.3546 H   0  0  0  0  0  0  0  0  0  0  0  0
   19.4917   11.9527   21.8806 H   0  0  0  0  0  0  0  0  0  0  0  0
   20.7193   10.5988   20.2664 H   0  0  0  0  0  0  0  0  0  0  0  0
   20.3743   12.3342   18.9669 C   0  0  0  0  0  0  0  0  0  0  0  0
   19.0892   12.5732   19.7743 C   0  0  0  0  0  0  0  0  0  0  0  0
   18.3777   11.7467   19.6896 H   0  0  0  0  0  0  0  0  0  0  0  0
   18.6091   13.5407   19.6045 H   0  0  0  0  0  0  0  0  0  0  0  0
   20.2427   11.6794   18.1015 H   0  0  0  0  0  0  0  0  0  0  0  0
   20.8493   13.2730   18.6753 H   0  0  0  0  0  0  0  0  0  0  0  0
   23.2115   13.9119   21.3768 N   0  0  0  0  0  0  0  0  0  0  0  0
   22.9665   13.1625   22.5207 C   0  0  0  0  0  0  0  0  0  0  0  0
   23.0481   13.4606   23.8620 N   0  0  0  0  0  0  0  0  0  0  0  0
   22.7788   12.6681   24.4068 H   0  0  0  0  0  0  0  0  0  0  0  0
   23.7144   15.2668   21.4285 C   0  0  0  0  0  0  0  0  0  0  0  0
   23.8325   15.6322   22.4729 H   0  0  0  0  0  0  0  0  0  0  0  0
   23.0136   15.9518   20.9027 H   0  0  0  0  0  0  0  0  0  0  0  0
   24.7069   15.3249   20.9299 H   0  0  0  0  0  0  0  0  0  0  0  0
   23.3977   10.8453   20.0173 C   0  0  0  0  0  0  0  0  0  0  0  0
   22.9925    9.9117   19.0266 C   0  0  0  0  0  0  0  0  0  0  0  0
   21.9671    9.8362   18.7067 H   0  0  0  0  0  0  0  0  0  0  0  0
   23.9072    9.0701   18.3825 C   0  0  0  0  0  0  0  0  0  0  0  0
   23.5668    8.3913   17.6135 H   0  0  0  0  0  0  0  0  0  0  0  0
   25.2559    9.1035   18.7298 C   0  0  0  0  0  0  0  0  0  0  0  0
   25.9522    8.4468   18.2261 H   0  0  0  0  0  0  0  0  0  0  0  0
   25.6925    9.9697   19.7402 C   0  0  0  0  0  0  0  0  0  0  0  0
   24.7722   10.8200   20.3711 C   0  0  0  0  0  0  0  0  0  0  0  0
   25.1322   11.5063   21.1244 H   0  0  0  0  0  0  0  0  0  0  0  0
   29.8395   10.0663   20.8529 C   0  0  0  0  0  0  0  0  0  0  0  0
   30.8817   10.0839   21.1339 H   0  0  0  0  0  0  0  0  0  0  0  0
   27.6587    9.0114   20.9654 C   0  0  0  0  0  0  0  0  0  0  0  0
   27.0244    8.2163   21.3294 H   0  0  0  0  0  0  0  0  0  0  0  0
   27.1347   10.0094   20.1271 C   0  0  0  0  0  0  0  0  0  0  0  0
   27.9701   11.0397   19.6558 C   0  0  0  0  0  0  0  0  0  0  0  0
   27.5779   11.8172   19.0148 H   0  0  0  0  0  0  0  0  0  0  0  0
   29.3205   11.0674   20.0223 C   0  0  0  0  0  0  0  0  0  0  0  0
   29.9623   11.8581   19.6631 H   0  0  0  0  0  0  0  0  0  0  0  0
   29.0086    9.0411   21.3212 C   0  0  0  0  0  0  0  0  0  0  0  0
   29.6508    7.7982   22.3481 Cl  0  0  0  0  0  0  0  0  0  0  0  0
  1  4  2  0
  1  5  1  0
  1 17  1  0
  2  3  1  0
  2  5  1  0
  2 18  1  0
  5  6  1  1
  5 25  1  0
  6  7  1  0
  6 10  1  0
  6 11  1  0
  7  8  1  0
  7  9  1  0
  7 12  1  0
 11 12  1  0
 11 15  1  0
 11 16  1  0
 12 13  1  0
 12 14  1  0
 17 18  1  0
 17 21  1  0
 18 19  2  0
 19 20  1  0
 21 22  1  0
 21 23  1  0
 21 24  1  0
 25 26  2  0
 25 33  1  0
 26 27  1  0
 26 28  1  0
 28 29  1  0
 28 30  2  0
 30 31  1  0
 30 32  1  0
 32 33  2  0
 32 39  1  0
 33 34  1  0
 35 36  1  0
 35 42  2  0
 35 44  1  0
 37 38  1  0
 37 39  1  0
 37 44  2  0
 39 40  2  0
 40 41  1  0
 40 42  1  0
 42 43  1  0
 44 45  1  0
M  END
> <intraLJ>
22.770    

> <intraEL>
-1.098    

> <intraDihe>
61.835    

> <interLJ>
0.000     

> <interEJ>
0.000     

> <gridLJ>
-4.586    

> <gridEL>
0.000     

> <totalE>
78.921    

> <LGFE>
-4.586  

> <LE>
-0.183  

> <SMILES>
[H]/N=C1\N[C@@](c2cccc(-c3cccc(Cl)c3)c2)(C2CCC2)C(=O)N1C

> <atom.dprop.GFE>
-0.0057 0.1400 0.0000 -0.5630 0.0336 -0.0057 -0.1056 0.0000 0.0000 0.0000 -0.3223 -0.1958 0.0000 0.0000 0.0000 0.0000 -0.0017 -0.0619 0.0850 0.0000 0.0523 0.0000 0.0000 0.0000 -0.1648 -0.1597 0.0000 -0.1787 0.0000 -0.1692 0.0000 -0.2022 -0.1288 0.0000 -0.1550 0.0000 -0.0974 0.0000 -0.0783 -0.1929 0.0000 -0.2148 0.0000 -0.0294 -1.8640

> <atom.prop.CLASS>
GEHC IMIH NCLA FORO PRPC PRPC PRPC NCLA NCLA NCLA PRPC PRPC NCLA NCLA NCLA NCLA GEHC GEHC GENA NCLA PRPC NCLA NCLA NCLA BENC BENC NCLA BENC NCLA BENC NCLA BENC BENC NCLA BENC NCLA BENC NCLA BENC BENC NCLA BENC NCLA BENC CLBX

> <cluster_id>
1

> <rmsd_to_cluster_rep>
0.00    

> <ligRMSD>
2.17    

> <ligCOMD>
1.13    

$$$$
bace1_merck_25_13f_160
     RDKit          3D

 48 51  0  0  1  0  0  0  0  0999 V2000
   22.9978   13.0756   19.4328 C   0  0  0  0  0  0  0  0  0  0  0  0
   22.3344   11.8840   21.3800 N   0  0  0  0  0  0  0  0  0  0  0  0
   22.8659   11.2143   21.9306 H   0  0  0  0  0  0  0  0  0  0  0  0
   23.4456   13.3784   18.3235 O   0  0  0  0  0  0  0  0  0  0  0  0
   22.4727   11.7344   19.9051 C   0  0  1  0  0  0  0  0  0  0  0  0
   21.0917   11.3282   19.2932 C   0  0  0  0  0  0  0  0  0  0  0  0
   20.4443   10.1147   19.9829 C   0  0  0  0  0  0  0  0  0  0  0  0
   20.5139   10.2187   21.0775 H   0  0  0  0  0  0  0  0  0  0  0  0
   20.9233    9.1616   19.7250 H   0  0  0  0  0  0  0  0  0  0  0  0
   21.2266   11.0492   18.2333 H   0  0  0  0  0  0  0  0  0  0  0  0
   19.9769   12.3817   19.3902 C   0  0  0  0  0  0  0  0  0  0  0  0
   18.7074   11.5891   19.0426 C   0  0  0  0  0  0  0  0  0  0  0  0
   18.5696   11.5650   17.9496 H   0  0  0  0  0  0  0  0  0  0  0  0
   18.9605   10.1617   19.5672 C   0  0  0  0  0  0  0  0  0  0  0  0
   18.7467    9.4220   18.7811 H   0  0  0  0  0  0  0  0  0  0  0  0
   18.3057    9.9149   20.4149 H   0  0  0  0  0  0  0  0  0  0  0  0
   17.8002   12.0417   19.4636 H   0  0  0  0  0  0  0  0  0  0  0  0
   20.1126   13.2603   18.7520 H   0  0  0  0  0  0  0  0  0  0  0  0
   19.8738   12.7561   20.4198 H   0  0  0  0  0  0  0  0  0  0  0  0
   22.9349   13.8625   20.5633 N   0  0  0  0  0  0  0  0  0  0  0  0
   22.5416   13.2353   21.7367 C   0  0  0  0  0  0  0  0  0  0  0  0
   22.3364   13.6946   23.0166 N   0  0  0  0  0  0  0  0  0  0  0  0
   22.0370   12.9429   23.6016 H   0  0  0  0  0  0  0  0  0  0  0  0
   23.3332   15.2527   20.5244 C   0  0  0  0  0  0  0  0  0  0  0  0
   23.2267   15.7486   21.5149 H   0  0  0  0  0  0  0  0  0  0  0  0
   22.7040   15.8072   19.7942 H   0  0  0  0  0  0  0  0  0  0  0  0
   24.3970   15.3363   20.2108 H   0  0  0  0  0  0  0  0  0  0  0  0
   23.5773   10.6968   19.6708 C   0  0  0  0  0  0  0  0  0  0  0  0
   23.4680    9.6598   18.7056 C   0  0  0  0  0  0  0  0  0  0  0  0
   22.5453    9.4742   18.1840 H   0  0  0  0  0  0  0  0  0  0  0  0
   24.5469    8.8351   18.3663 C   0  0  0  0  0  0  0  0  0  0  0  0
   24.4274    8.0744   17.6079 H   0  0  0  0  0  0  0  0  0  0  0  0
   25.7741    8.9898   19.0053 C   0  0  0  0  0  0  0  0  0  0  0  0
   26.6009    8.3469   18.7348 H   0  0  0  0  0  0  0  0  0  0  0  0
   25.9180    9.9584   20.0065 C   0  0  0  0  0  0  0  0  0  0  0  0
   24.8322   10.7862   20.3341 C   0  0  0  0  0  0  0  0  0  0  0  0
   24.9727   11.5507   21.0845 H   0  0  0  0  0  0  0  0  0  0  0  0
   29.6852   10.4329   22.0134 C   0  0  0  0  0  0  0  0  0  0  0  0
   30.6328   10.5454   22.5183 H   0  0  0  0  0  0  0  0  0  0  0  0
   27.8508    9.0183   21.2960 C   0  0  0  0  0  0  0  0  0  0  0  0
   27.3885    8.0431   21.2464 H   0  0  0  0  0  0  0  0  0  0  0  0
   27.2279   10.1291   20.7040 C   0  0  0  0  0  0  0  0  0  0  0  0
   27.8392   11.3956   20.7723 C   0  0  0  0  0  0  0  0  0  0  0  0
   27.3671   12.2600   20.3262 H   0  0  0  0  0  0  0  0  0  0  0  0
   29.0655   11.5451   21.4297 C   0  0  0  0  0  0  0  0  0  0  0  0
   29.5347   12.5162   21.4853 H   0  0  0  0  0  0  0  0  0  0  0  0
   29.0777    9.1733   21.9441 C   0  0  0  0  0  0  0  0  0  0  0  0
   29.8452    7.7936   22.6643 Cl  0  0  0  0  0  0  0  0  0  0  0  0
  1  4  2  0
  1  5  1  0
  1 20  1  0
  2  3  1  0
  2  5  1  0
  2 21  1  0
  5  6  1  6
  5 28  1  0
  6  7  1  0
  6 10  1  0
  6 11  1  0
  7  8  1  0
  7  9  1  0
  7 14  1  0
 11 12  1  0
 11 18  1  0
 11 19  1  0
 12 13  1  0
 12 14  1  0
 12 17  1  0
 14 15  1  0
 14 16  1  0
 20 21  1  0
 20 24  1  0
 21 22  2  0
 22 23  1  0
 24 25  1  0
 24 26  1  0
 24 27  1  0
 28 29  2  0
 28 36  1  0
 29 30  1  0
 29 31  1  0
 31 32  1  0
 31 33  2  0
 33 34  1  0
 33 35  1  0
 35 36  2  0
 35 42  1  0
 36 37  1  0
 38 39  1  0
 38 45  2  0
 38 47  1  0
 40 41  1  0
 40 42  1  0
 40 47  2  0
 42 43  2  0
 43 44  1  0
 43 45  1  0
 45 46  1  0
 47 48  1  0
M  END
> <intraLJ>
23.414    

> <intraEL>
-2.621    

> <intraDihe>
53.768    

> <interLJ>
0.000     

> <interEJ>
0.000     

> <gridLJ>
-4.984    

> <gridEL>
0.000     

> <totalE>
69.577    

> <LGFE>
-4.984  

> <LE>
-0.192  

> <SMILES>
[H]/N=C1\N[C@@](c2cccc(-c3cccc(Cl)c3)c2)(C2CCCC2)C(=O)N1C

> <atom.dprop.GFE>
0.0210 0.3790 0.0000 -0.5630 -0.1029 -0.1911 -0.3140 0.0000 0.0000 0.0000 -0.1835 -0.4013 0.0000 -0.4269 0.0000 0.0000 0.0000 0.0000 0.0000 -0.0140 -0.0293 -0.4080 0.0000 0.0929 0.0000 0.0000 0.0000 -0.1109 -0.1054 0.0000 -0.1787 0.0000 -0.1692 0.0000 -0.2256 -0.1288 0.0000 -0.0035 0.0000 0.0371 0.0000 -0.0783 -0.0633 0.0000 0.0772 0.0000 -0.0294 -1.8640

> <atom.prop.CLASS>
GEHC IMIH NCLA FORO PRPC PRPC PRPC NCLA NCLA NCLA PRPC PRPC NCLA PRPC NCLA NCLA NCLA NCLA NCLA GEHC GEHC GENA NCLA PRPC NCLA NCLA NCLA BENC BENC NCLA BENC NCLA BENC NCLA BENC BENC NCLA BENC NCLA BENC NCLA BENC BENC NCLA BENC NCLA BENC CLBX

> <cluster_id>
1

> <rmsd_to_cluster_rep>
0.00    

> <ligRMSD>
2.43    

> <ligCOMD>
1.10    

$$$$
bace1_merck_26_13g_772
     RDKit          3D

 51 54  0  0  1  0  0  0  0  0999 V2000
   22.7593   13.1388   20.1125 C   0  0  0  0  0  0  0  0  0  0  0  0
   22.3780   11.8394   22.0694 N   0  0  0  0  0  0  0  0  0  0  0  0
   22.9434   11.1029   22.4838 H   0  0  0  0  0  0  0  0  0  0  0  0
   22.9954   13.5109   18.9602 O   0  0  0  0  0  0  0  0  0  0  0  0
   22.2832   11.7833   20.5866 C   0  0  1  0  0  0  0  0  0  0  0  0
   20.7852   11.4571   20.2096 C   0  0  0  0  0  0  0  0  0  0  0  0
   19.7437   12.1153   21.1659 C   0  0  0  0  0  0  0  0  0  0  0  0
   19.8800   13.2181   21.1501 H   0  0  0  0  0  0  0  0  0  0  0  0
   19.8842   11.7602   22.2092 H   0  0  0  0  0  0  0  0  0  0  0  0
   20.6154   10.3619   20.2895 H   0  0  0  0  0  0  0  0  0  0  0  0
   20.4267   11.9351   18.7712 C   0  0  0  0  0  0  0  0  0  0  0  0
   19.0037   11.5386   18.3606 C   0  0  0  0  0  0  0  0  0  0  0  0
   18.9147   10.4297   18.3788 H   0  0  0  0  0  0  0  0  0  0  0  0
   18.8000   11.8856   17.3241 H   0  0  0  0  0  0  0  0  0  0  0  0
   18.2931   11.7819   20.7739 C   0  0  0  0  0  0  0  0  0  0  0  0
   17.5922   12.3139   21.4534 H   0  0  0  0  0  0  0  0  0  0  0  0
   18.1351   10.6880   20.9068 H   0  0  0  0  0  0  0  0  0  0  0  0
   17.9748   12.1471   19.3189 C   0  0  0  0  0  0  0  0  0  0  0  0
   16.9527   11.8018   19.0528 H   0  0  0  0  0  0  0  0  0  0  0  0
   18.0035   13.2553   19.2147 H   0  0  0  0  0  0  0  0  0  0  0  0
   21.1429   11.5368   18.0252 H   0  0  0  0  0  0  0  0  0  0  0  0
   20.4801   13.0451   18.7250 H   0  0  0  0  0  0  0  0  0  0  0  0
   22.9240   13.8479   21.2830 N   0  0  0  0  0  0  0  0  0  0  0  0
   22.7213   13.1517   22.4663 C   0  0  0  0  0  0  0  0  0  0  0  0
   22.7830   13.5278   23.7880 N   0  0  0  0  0  0  0  0  0  0  0  0
   22.5593   12.7519   24.3755 H   0  0  0  0  0  0  0  0  0  0  0  0
   23.3627   15.2264   21.2588 C   0  0  0  0  0  0  0  0  0  0  0  0
   23.4611   15.6547   22.2812 H   0  0  0  0  0  0  0  0  0  0  0  0
   22.6314   15.8473   20.6963 H   0  0  0  0  0  0  0  0  0  0  0  0
   24.3524   15.3039   20.7573 H   0  0  0  0  0  0  0  0  0  0  0  0
   23.2668   10.7277   20.0815 C   0  0  0  0  0  0  0  0  0  0  0  0
   22.9151    9.7063   19.1597 C   0  0  0  0  0  0  0  0  0  0  0  0
   21.8929    9.5466   18.8601 H   0  0  0  0  0  0  0  0  0  0  0  0
   23.8727    8.8809   18.5606 C   0  0  0  0  0  0  0  0  0  0  0  0
   23.5680    8.1369   17.8384 H   0  0  0  0  0  0  0  0  0  0  0  0
   25.2174    9.0096   18.8982 C   0  0  0  0  0  0  0  0  0  0  0  0
   25.9478    8.3623   18.4320 H   0  0  0  0  0  0  0  0  0  0  0  0
   25.6065    9.9563   19.8542 C   0  0  0  0  0  0  0  0  0  0  0  0
   24.6416   10.7938   20.4349 C   0  0  0  0  0  0  0  0  0  0  0  0
   24.9649   11.5428   21.1435 H   0  0  0  0  0  0  0  0  0  0  0  0
   29.7429   10.3412   20.9408 C   0  0  0  0  0  0  0  0  0  0  0  0
   30.7830   10.4318   21.2152 H   0  0  0  0  0  0  0  0  0  0  0  0
   27.6954    9.0422   20.8961 C   0  0  0  0  0  0  0  0  0  0  0  0
   27.1614    8.1334   21.1327 H   0  0  0  0  0  0  0  0  0  0  0  0
   27.0447   10.0947   20.2317 C   0  0  0  0  0  0  0  0  0  0  0  0
   27.7497   11.2741   19.9254 C   0  0  0  0  0  0  0  0  0  0  0  0
   27.2586   12.0940   19.4197 H   0  0  0  0  0  0  0  0  0  0  0  0
   29.0969   11.3958   20.2835 C   0  0  0  0  0  0  0  0  0  0  0  0
   29.6386   12.3007   20.0515 H   0  0  0  0  0  0  0  0  0  0  0  0
   29.0417    9.1678   21.2441 C   0  0  0  0  0  0  0  0  0  0  0  0
   29.8414    7.8594   22.0561 Cl  0  0  0  0  0  0  0  0  0  0  0  0
  1  4  2  0
  1  5  1  0
  1 23  1  0
  2  3  1  0
  2  5  1  0
  2 24  1  0
  5  6  1  1
  5 31  1  0
  6  7  1  0
  6 10  1  0
  6 11  1  0
  7  8  1  0
  7  9  1  0
  7 15  1  0
 11 12  1  0
 11 21  1  0
 11 22  1  0
 12 13  1  0
 12 14  1  0
 12 18  1  0
 15 16  1  0
 15 17  1  0
 15 18  1  0
 18 19  1  0
 18 20  1  0
 23 24  1  0
 23 27  1  0
 24 25  2  0
 25 26  1  0
 27 28  1  0
 27 29  1  0
 27 30  1  0
 31 32  2  0
 31 39  1  0
 32 33  1  0
 32 34  1  0
 34 35  1  0
 34 36  2  0
 36 37  1  0
 36 38  1  0
 38 39  2  0
 38 45  1  0
 39 40  1  0
 41 42  1  0
 41 48  2  0
 41 50  1  0
 43 44  1  0
 43 45  1  0
 43 50  2  0
 45 46  2  0
 46 47  1  0
 46 48  1  0
 48 49  1  0
 50 51  1  0
M  END
> <intraLJ>
23.461    

> <intraEL>
-3.798    

> <intraDihe>
40.861    

> <interLJ>
0.000     

> <interEJ>
0.000     

> <gridLJ>
-5.015    

> <gridEL>
0.000     

> <totalE>
55.509    

> <LGFE>
-5.015  

> <LE>
-0.186  

> <SMILES>
[H]/N=C1\N[C@@](c2cccc(-c3cccc(Cl)c3)c2)(C2CCCCC2)C(=O)N1C

> <atom.dprop.GFE>
0.0926 0.1400 0.0000 -0.5630 0.0336 -0.1895 -0.1016 0.0000 0.0000 0.0000 -0.3223 -0.4289 0.0000 0.0000 -0.2751 0.0000 0.0000 -0.1222 0.0000 0.0000 0.0000 0.0000 -0.0017 -0.0649 0.0150 0.0000 0.0523 0.0000 0.0000 0.0000 -0.0245 -0.0728 0.0000 -0.1787 0.0000 -0.1692 0.0000 -0.2022 -0.1288 0.0000 -0.1550 0.0000 -0.0974 0.0000 -0.0783 -0.1446 0.0000 -0.1349 0.0000 -0.0294 -1.8640

> <atom.prop.CLASS>
GEHC IMIH NCLA FORO PRPC PRPC PRPC NCLA NCLA NCLA PRPC PRPC NCLA NCLA PRPC NCLA NCLA PRPC NCLA NCLA NCLA NCLA GEHC GEHC GENA NCLA PRPC NCLA NCLA NCLA BENC BENC NCLA BENC NCLA BENC NCLA BENC BENC NCLA BENC NCLA BENC NCLA BENC BENC NCLA BENC NCLA BENC CLBX

> <cluster_id>
1

> <rmsd_to_cluster_rep>
0.00    

> <ligRMSD>
2.15    

> <ligCOMD>
1.11    

$$$$
bace1_merck_27_13h_778
     RDKit          3D

 45 48  0  0  1  0  0  0  0  0999 V2000
   23.1282   13.2091   20.1602 C   0  0  0  0  0  0  0  0  0  0  0  0
   22.8802   11.7961   22.0591 N   0  0  0  0  0  0  0  0  0  0  0  0
   23.4699   11.0374   22.3914 H   0  0  0  0  0  0  0  0  0  0  0  0
   23.2756   13.6506   19.0178 O   0  0  0  0  0  0  0  0  0  0  0  0
   22.6870   11.8189   20.5880 C   0  0  1  0  0  0  0  0  0  0  0  0
   21.2061   11.4440   20.3876 C   0  0  0  0  0  0  0  0  0  0  0  0
   20.1787   12.5815   20.3906 C   0  0  0  0  0  0  0  0  0  0  0  0
   20.5316   13.5924   20.4906 H   0  0  0  0  0  0  0  0  0  0  0  0
   19.2163   12.3503   20.8179 H   0  0  0  0  0  0  0  0  0  0  0  0
   20.7045   10.1596   21.0270 C   0  0  0  0  0  0  0  0  0  0  0  0
   20.6410   10.2826   22.1294 H   0  0  0  0  0  0  0  0  0  0  0  0
   21.3782    9.3075   20.7991 H   0  0  0  0  0  0  0  0  0  0  0  0
   19.6885    9.9184   20.6462 H   0  0  0  0  0  0  0  0  0  0  0  0
   20.5152   11.8670   19.0856 C   0  0  0  0  0  0  0  0  0  0  0  0
   19.7590   11.1986   18.7070 H   0  0  0  0  0  0  0  0  0  0  0  0
   21.1034   12.4106   18.3673 H   0  0  0  0  0  0  0  0  0  0  0  0
   23.3810   13.8499   21.3558 N   0  0  0  0  0  0  0  0  0  0  0  0
   23.2564   13.0801   22.5049 C   0  0  0  0  0  0  0  0  0  0  0  0
   23.4110   13.3520   23.8425 N   0  0  0  0  0  0  0  0  0  0  0  0
   23.2212   12.5315   24.3796 H   0  0  0  0  0  0  0  0  0  0  0  0
   23.8132   15.2318   21.3869 C   0  0  0  0  0  0  0  0  0  0  0  0
   23.9820   15.5949   22.4253 H   0  0  0  0  0  0  0  0  0  0  0  0
   23.0426   15.8820   20.9175 H   0  0  0  0  0  0  0  0  0  0  0  0
   24.7650   15.3480   20.8233 H   0  0  0  0  0  0  0  0  0  0  0  0
   23.6429   10.8092   19.9641 C   0  0  0  0  0  0  0  0  0  0  0  0
   23.2510    9.9162   18.9339 C   0  0  0  0  0  0  0  0  0  0  0  0
   22.2234    9.8433   18.6166 H   0  0  0  0  0  0  0  0  0  0  0  0
   24.1759    9.1254   18.2439 C   0  0  0  0  0  0  0  0  0  0  0  0
   23.8408    8.4724   17.4507 H   0  0  0  0  0  0  0  0  0  0  0  0
   25.5296    9.1853   18.5669 C   0  0  0  0  0  0  0  0  0  0  0  0
   26.2345    8.5729   18.0212 H   0  0  0  0  0  0  0  0  0  0  0  0
   25.9621   10.0237   19.6023 C   0  0  0  0  0  0  0  0  0  0  0  0
   25.0271   10.8132   20.2905 C   0  0  0  0  0  0  0  0  0  0  0  0
   25.3808   11.4766   21.0666 H   0  0  0  0  0  0  0  0  0  0  0  0
   30.1305   10.2168   20.6244 C   0  0  0  0  0  0  0  0  0  0  0  0
   31.1770   10.2605   20.8859 H   0  0  0  0  0  0  0  0  0  0  0  0
   27.8746    9.4852   21.1320 C   0  0  0  0  0  0  0  0  0  0  0  0
   27.1868    8.9637   21.7816 H   0  0  0  0  0  0  0  0  0  0  0  0
   27.4128   10.0954   19.9543 C   0  0  0  0  0  0  0  0  0  0  0  0
   28.3182   10.7701   19.1129 C   0  0  0  0  0  0  0  0  0  0  0  0
   27.9751   11.2492   18.2063 H   0  0  0  0  0  0  0  0  0  0  0  0
   29.6748   10.8320   19.4516 C   0  0  0  0  0  0  0  0  0  0  0  0
   30.3698   11.3513   18.8086 H   0  0  0  0  0  0  0  0  0  0  0  0
   29.2307    9.5443   21.4602 C   0  0  0  0  0  0  0  0  0  0  0  0
   29.7939    8.7789   22.9122 Cl  0  0  0  0  0  0  0  0  0  0  0  0
  1  4  2  0
  1  5  1  0
  1 17  1  0
  2  3  1  0
  2  5  1  0
  2 18  1  0
  5  6  1  1
  5 25  1  0
  6  7  1  0
  6 10  1  0
  6 14  1  0
  7  8  1  0
  7  9  1  0
  7 14  1  0
 10 11  1  0
 10 12  1  0
 10 13  1  0
 14 15  1  0
 14 16  1  0
 17 18  1  0
 17 21  1  0
 18 19  2  0
 19 20  1  0
 21 22  1  0
 21 23  1  0
 21 24  1  0
 25 26  2  0
 25 33  1  0
 26 27  1  0
 26 28  1  0
 28 29  1  0
 28 30  2  0
 30 31  1  0
 30 32  1  0
 32 33  2  0
 32 39  1  0
 33 34  1  0
 35 36  1  0
 35 42  2  0
 35 44  1  0
 37 38  1  0
 37 39  1  0
 37 44  2  0
 39 40  2  0
 40 41  1  0
 40 42  1  0
 42 43  1  0
 44 45  1  0
M  END
> <intraLJ>
22.641    

> <intraEL>
-1.209    

> <intraDihe>
42.912    

> <interLJ>
0.000     

> <interEJ>
0.000     

> <gridLJ>
-4.554    

> <gridEL>
0.000     

> <totalE>
59.789    

> <LGFE>
-4.554  

> <LE>
-0.182  

> <SMILES>
[H]/N=C1\N[C@@](c2cccc(-c3cccc(Cl)c3)c2)(C2(C)CC2)C(=O)N1C

> <atom.dprop.GFE>
-0.0057 -0.0480 0.0000 -0.5630 0.0336 -0.0057 -0.1056 0.0000 0.0000 -0.1056 0.0000 0.0000 0.0000 -0.1835 0.0000 0.0000 -0.0017 -0.0619 0.0850 0.0000 0.0523 0.0000 0.0000 0.0000 -0.1648 -0.1597 0.0000 -0.1787 0.0000 -0.1692 0.0000 -0.2256 -0.1364 0.0000 -0.0215 0.0000 0.0371 0.0000 -0.2520 -0.2657 0.0000 -0.2148 0.0000 -0.0294 -1.8640

> <atom.prop.CLASS>
GEHC IMIH NCLA FORO PRPC PRPC PRPC NCLA NCLA PRPC NCLA NCLA NCLA PRPC NCLA NCLA GEHC GEHC GENA NCLA PRPC NCLA NCLA NCLA BENC BENC NCLA BENC NCLA BENC NCLA BENC BENC NCLA BENC NCLA BENC NCLA BENC BENC NCLA BENC NCLA BENC CLBX

> <cluster_id>
1

> <rmsd_to_cluster_rep>
0.00    

> <ligRMSD>
2.14    

> <ligCOMD>
1.04    

$$$$
bace1_merck_28_13i_334
     RDKit          3D

 45 48  0  0  1  0  0  0  0  0999 V2000
   22.8674   10.2490   20.8216 C   0  0  0  0  0  0  0  0  0  0  0  0
   23.0837   10.9436   18.5529 N   0  0  0  0  0  0  0  0  0  0  0  0
   23.8805   11.3314   18.0542 H   0  0  0  0  0  0  0  0  0  0  0  0
   22.8617   10.2030   22.0538 O   0  0  0  0  0  0  0  0  0  0  0  0
   22.9101   11.4685   19.9291 C   0  0  1  0  0  0  0  0  0  0  0  0
   21.6550   12.3230   19.8218 C   0  0  1  0  0  0  0  0  0  0  0  0
   21.7341   13.1686   19.1540 H   0  0  0  0  0  0  0  0  0  0  0  0
   20.2879   11.6363   19.8886 C   0  0  2  0  0  0  0  0  0  0  0  0
   20.2610   10.5742   20.0615 H   0  0  0  0  0  0  0  0  0  0  0  0
   19.1886   12.2070   19.0401 C   0  0  0  0  0  0  0  0  0  0  0  0
   18.2039   11.9490   19.4851 H   0  0  0  0  0  0  0  0  0  0  0  0
   19.2471   11.7785   18.0169 H   0  0  0  0  0  0  0  0  0  0  0  0
   19.2789   13.3125   18.9764 H   0  0  0  0  0  0  0  0  0  0  0  0
   20.7658   12.5121   21.0500 C   0  0  0  0  0  0  0  0  0  0  0  0
   20.2853   13.4719   21.1475 H   0  0  0  0  0  0  0  0  0  0  0  0
   21.0436   12.0020   21.9553 H   0  0  0  0  0  0  0  0  0  0  0  0
   22.8976    9.1984   19.9292 N   0  0  0  0  0  0  0  0  0  0  0  0
   23.0286    9.5335   18.5873 C   0  0  0  0  0  0  0  0  0  0  0  0
   23.0871    8.7886   17.4349 N   0  0  0  0  0  0  0  0  0  0  0  0
   23.1713    9.3926   16.6440 H   0  0  0  0  0  0  0  0  0  0  0  0
   22.8647    7.8275   20.3936 C   0  0  0  0  0  0  0  0  0  0  0  0
   22.9085    7.0997   19.5530 H   0  0  0  0  0  0  0  0  0  0  0  0
   21.9263    7.6405   20.9605 H   0  0  0  0  0  0  0  0  0  0  0  0
   23.7291    7.6296   21.0650 H   0  0  0  0  0  0  0  0  0  0  0  0
   24.1284   12.2995   20.2880 C   0  0  0  0  0  0  0  0  0  0  0  0
   24.0414   13.6646   20.6617 C   0  0  0  0  0  0  0  0  0  0  0  0
   23.1086   14.2030   20.6039 H   0  0  0  0  0  0  0  0  0  0  0  0
   25.1430   14.3590   21.1766 C   0  0  0  0  0  0  0  0  0  0  0  0
   25.0368   15.3913   21.4777 H   0  0  0  0  0  0  0  0  0  0  0  0
   26.3759   13.7217   21.3096 C   0  0  0  0  0  0  0  0  0  0  0  0
   27.2176   14.2690   21.7115 H   0  0  0  0  0  0  0  0  0  0  0  0
   26.5179   12.3876   20.9060 C   0  0  0  0  0  0  0  0  0  0  0  0
   25.4087   11.6966   20.3974 C   0  0  0  0  0  0  0  0  0  0  0  0
   25.5252   10.6586   20.1201 H   0  0  0  0  0  0  0  0  0  0  0  0
   30.2943   10.3787   21.2952 C   0  0  0  0  0  0  0  0  0  0  0  0
   31.2403    9.8679   21.3933 H   0  0  0  0  0  0  0  0  0  0  0  0
   27.8774   10.3651   21.4956 C   0  0  0  0  0  0  0  0  0  0  0  0
   26.9646    9.8436   21.7444 H   0  0  0  0  0  0  0  0  0  0  0  0
   27.8339   11.6936   21.0415 C   0  0  0  0  0  0  0  0  0  0  0  0
   29.0288   12.3637   20.7177 C   0  0  0  0  0  0  0  0  0  0  0  0
   29.0096   13.3885   20.3732 H   0  0  0  0  0  0  0  0  0  0  0  0
   30.2569   11.7054   20.8481 C   0  0  0  0  0  0  0  0  0  0  0  0
   31.1746   12.2188   20.6021 H   0  0  0  0  0  0  0  0  0  0  0  0
   29.1056    9.7119   21.6164 C   0  0  0  0  0  0  0  0  0  0  0  0
   29.1497    8.0671   22.1677 Cl  0  0  0  0  0  0  0  0  0  0  0  0
  1  4  2  0
  1  5  1  0
  1 17  1  0
  2  3  1  0
  2  5  1  0
  2 18  1  0
  5  6  1  0
  5 25  1  1
  6  7  1  6
  6  8  1  0
  6 14  1  0
  8  9  1  1
  8 10  1  0
  8 14  1  0
 10 11  1  0
 10 12  1  0
 10 13  1  0
 14 15  1  0
 14 16  1  0
 17 18  1  0
 17 21  1  0
 18 19  2  0
 19 20  1  0
 21 22  1  0
 21 23  1  0
 21 24  1  0
 25 26  2  0
 25 33  1  0
 26 27  1  0
 26 28  1  0
 28 29  1  0
 28 30  2  0
 30 31  1  0
 30 32  1  0
 32 33  2  0
 32 39  1  0
 33 34  1  0
 35 36  1  0
 35 42  2  0
 35 44  1  0
 37 38  1  0
 37 39  1  0
 37 44  2  0
 39 40  2  0
 40 41  1  0
 40 42  1  0
 42 43  1  0
 44 45  1  0
M  END
> <intraLJ>
24.103    

> <intraEL>
-3.770    

> <intraDihe>
37.890    

> <interLJ>
0.000     

> <interEJ>
0.000     

> <gridLJ>
-4.460    

> <gridEL>
0.000     

> <totalE>
53.763    

> <LGFE>
-4.460  

> <LE>
-0.178  

> <SMILES>
[H]/N=C1\N[C@@](c2cccc(-c3cccc(Cl)c3)c2)([C@@H]2C[C@H]2C)C(=O)N1C

> <atom.dprop.GFE>
-0.0539 -0.7260 0.0000 -0.4750 -0.1935 -0.1638 0.0000 -0.3127 0.0000 -0.3670 0.0000 0.0000 0.0000 -0.1056 0.0000 0.0000 -0.1545 -0.2181 0.1650 0.0000 0.0962 0.0000 0.0000 0.0000 -0.0952 -0.0202 0.0000 0.0600 0.0000 0.1820 0.0000 -0.0605 -0.1364 0.0000 0.0070 0.0000 0.1528 0.0000 -0.0633 -0.0266 0.0000 -0.0571 0.0000 -0.0294 -1.8640

> <atom.prop.CLASS>
GEHC IMIH NCLA FORO PRPC PRPC NCLA PRPC NCLA PRPC NCLA NCLA NCLA PRPC NCLA NCLA GEHC GEHC GENA NCLA PRPC NCLA NCLA NCLA BENC BENC NCLA BENC NCLA BENC NCLA BENC BENC NCLA BENC NCLA BENC NCLA BENC BENC NCLA BENC NCLA BENC CLBX

> <cluster_id>
1

> <rmsd_to_cluster_rep>
0.00    

> <ligRMSD>
3.15    

> <ligCOMD>
1.19    

$$$$
bace1_merck_29_13j_1097
     RDKit          3D

 44 47  0  0  1  0  0  0  0  0999 V2000
   22.9560   12.9711   19.3886 C   0  0  0  0  0  0  0  0  0  0  0  0
   22.4402   11.8919   21.4104 N   0  0  0  0  0  0  0  0  0  0  0  0
   22.9886   11.2477   21.9737 H   0  0  0  0  0  0  0  0  0  0  0  0
   23.3627   13.2317   18.2502 O   0  0  0  0  0  0  0  0  0  0  0  0
   22.4837   11.6042   19.9336 C   0  0  2  0  0  0  0  0  0  0  0  0
   22.8905   13.8340   20.4669 N   0  0  0  0  0  0  0  0  0  0  0  0
   22.6296   13.2583   21.6994 C   0  0  0  0  0  0  0  0  0  0  0  0
   22.5408   13.7592   22.9816 N   0  0  0  0  0  0  0  0  0  0  0  0
   22.3241   13.0212   23.6187 H   0  0  0  0  0  0  0  0  0  0  0  0
   23.3060   15.2112   20.3251 C   0  0  0  0  0  0  0  0  0  0  0  0
   23.2361   15.7700   21.2849 H   0  0  0  0  0  0  0  0  0  0  0  0
   22.6590   15.7259   19.5814 H   0  0  0  0  0  0  0  0  0  0  0  0
   24.3600   15.2611   19.9728 H   0  0  0  0  0  0  0  0  0  0  0  0
   23.6534   10.6810   19.7099 C   0  0  0  0  0  0  0  0  0  0  0  0
   23.4841    9.6543   18.7511 C   0  0  0  0  0  0  0  0  0  0  0  0
   22.5304    9.5212   18.2614 H   0  0  0  0  0  0  0  0  0  0  0  0
   24.5393    8.8228   18.3689 C   0  0  0  0  0  0  0  0  0  0  0  0
   24.3845    8.0630   17.6164 H   0  0  0  0  0  0  0  0  0  0  0  0
   25.7963    8.9811   18.9534 C   0  0  0  0  0  0  0  0  0  0  0  0
   26.6091    8.3367   18.6476 H   0  0  0  0  0  0  0  0  0  0  0  0
   25.9920    9.9587   19.9426 C   0  0  0  0  0  0  0  0  0  0  0  0
   24.9248   10.7876   20.3225 C   0  0  0  0  0  0  0  0  0  0  0  0
   25.0881   11.5553   21.0657 H   0  0  0  0  0  0  0  0  0  0  0  0
   29.8360   10.4520   21.8011 C   0  0  0  0  0  0  0  0  0  0  0  0
   30.8022   10.5673   22.2687 H   0  0  0  0  0  0  0  0  0  0  0  0
   27.8792    9.0965   21.3455 C   0  0  0  0  0  0  0  0  0  0  0  0
   27.3406    8.1671   21.4615 H   0  0  0  0  0  0  0  0  0  0  0  0
   27.3306   10.1412   20.5829 C   0  0  0  0  0  0  0  0  0  0  0  0
   28.0408   11.3483   20.4377 C   0  0  0  0  0  0  0  0  0  0  0  0
   27.6275   12.1643   19.8613 H   0  0  0  0  0  0  0  0  0  0  0  0
   29.2903   11.5023   21.0510 C   0  0  0  0  0  0  0  0  0  0  0  0
   29.8353   12.4283   20.9424 H   0  0  0  0  0  0  0  0  0  0  0  0
   29.1304    9.2506   21.9457 C   0  0  0  0  0  0  0  0  0  0  0  0
   29.8030    7.9385   22.8639 Cl  0  0  0  0  0  0  0  0  0  0  0  0
   18.6987   10.2625   18.5514 C   0  0  0  0  0  0  0  0  0  0  0  0
   17.7800    9.7985   18.2285 H   0  0  0  0  0  0  0  0  0  0  0  0
   19.4046    9.7684   19.6584 C   0  0  0  0  0  0  0  0  0  0  0  0
   19.0570    8.8850   20.1771 H   0  0  0  0  0  0  0  0  0  0  0  0
   20.5704   10.2935   20.0337 N   0  0  0  0  0  0  0  0  0  0  0  0
   21.0296   11.4362   19.4893 C   0  0  0  0  0  0  0  0  0  0  0  0
   20.4203   11.9444   18.3171 C   0  0  0  0  0  0  0  0  0  0  0  0
   20.8378   12.7818   17.7813 H   0  0  0  0  0  0  0  0  0  0  0  0
   19.2315   11.3607   17.8646 C   0  0  0  0  0  0  0  0  0  0  0  0
   18.7342   11.7500   16.9885 H   0  0  0  0  0  0  0  0  0  0  0  0
  1  4  2  0
  1  5  1  0
  1  6  1  0
  2  3  1  0
  2  5  1  0
  2  7  1  0
  5 14  1  1
  5 40  1  0
  6  7  1  0
  6 10  1  0
  7  8  2  0
  8  9  1  0
 10 11  1  0
 10 12  1  0
 10 13  1  0
 14 15  2  0
 14 22  1  0
 15 16  1  0
 15 17  1  0
 17 18  1  0
 17 19  2  0
 19 20  1  0
 19 21  1  0
 21 22  2  0
 21 28  1  0
 22 23  1  0
 24 25  1  0
 24 31  2  0
 24 33  1  0
 26 27  1  0
 26 28  1  0
 26 33  2  0
 28 29  2  0
 29 30  1  0
 29 31  1  0
 31 32  1  0
 33 34  1  0
 35 36  1  0
 35 37  2  0
 35 43  1  0
 37 38  1  0
 37 39  1  0
 39 40  2  0
 40 41  1  0
 41 42  1  0
 41 43  2  0
 43 44  1  0
M  END
> <intraLJ>
37.134    

> <intraEL>
1.313     

> <intraDihe>
48.901    

> <interLJ>
0.000     

> <interEJ>
0.000     

> <gridLJ>
-4.973    

> <gridEL>
0.000     

> <totalE>
82.376    

> <LGFE>
-4.973  

> <LE>
-0.184  

> <SMILES>
[H]/N=C1\N[C@@](c2cccc(-c3cccc(Cl)c3)c2)(c2ccccn2)C(=O)N1C

> <atom.dprop.GFE>
0.0210 0.3790 0.0000 -0.5630 -0.1029 -0.0140 -0.0293 -0.4080 0.0000 0.0929 0.0000 0.0000 0.0000 -0.1109 -0.1054 0.0000 -0.1787 0.0000 -0.1692 0.0000 -0.2256 -0.1364 0.0000 -0.0035 0.0000 0.0371 0.0000 -0.0783 -0.0364 0.0000 -0.1349 0.0000 -0.0294 -1.8640 -0.2378 0.0000 -0.3027 0.0000 -0.3390 -0.0556 -0.2660 0.0000 -0.1119 0.0000

> <atom.prop.CLASS>
GEHC IMIH NCLA FORO PRPC GEHC GEHC GENA NCLA PRPC NCLA NCLA NCLA BENC BENC NCLA BENC NCLA BENC NCLA BENC BENC NCLA BENC NCLA BENC NCLA BENC BENC NCLA BENC NCLA BENC CLBX BENC NCLA GEHC NCLA IMIN GEHC BENC NCLA BENC NCLA

> <cluster_id>
1

> <rmsd_to_cluster_rep>
0.00    

> <ligRMSD>
2.42    

> <ligCOMD>
1.13    

$$$$
bace1_merck_30_13k_823
     RDKit          3D

 44 47  0  0  1  0  0  0  0  0999 V2000
   22.9716   13.1874   19.9743 C   0  0  0  0  0  0  0  0  0  0  0  0
   22.4362   11.7853   21.7818 N   0  0  0  0  0  0  0  0  0  0  0  0
   22.9517   11.0029   22.1768 H   0  0  0  0  0  0  0  0  0  0  0  0
   23.3720   13.6167   18.8859 O   0  0  0  0  0  0  0  0  0  0  0  0
   22.3848   11.7924   20.2818 C   0  0  2  0  0  0  0  0  0  0  0  0
   23.0393   13.8260   21.1985 N   0  0  0  0  0  0  0  0  0  0  0  0
   22.7670   13.0489   22.3129 C   0  0  0  0  0  0  0  0  0  0  0  0
   22.7726   13.2977   23.6699 N   0  0  0  0  0  0  0  0  0  0  0  0
   22.5079   12.4732   24.1675 H   0  0  0  0  0  0  0  0  0  0  0  0
   23.6266   15.1430   21.2982 C   0  0  0  0  0  0  0  0  0  0  0  0
   23.6538   15.5102   22.3483 H   0  0  0  0  0  0  0  0  0  0  0  0
   23.0329   15.8668   20.6980 H   0  0  0  0  0  0  0  0  0  0  0  0
   24.6689   15.1311   20.9095 H   0  0  0  0  0  0  0  0  0  0  0  0
   23.4144   10.8037   19.8168 C   0  0  0  0  0  0  0  0  0  0  0  0
   22.9981    9.8342   18.8725 C   0  0  0  0  0  0  0  0  0  0  0  0
   21.9676    9.7925   18.5516 H   0  0  0  0  0  0  0  0  0  0  0  0
   23.9011    8.9445   18.2869 C   0  0  0  0  0  0  0  0  0  0  0  0
   23.5599    8.2341   17.5475 H   0  0  0  0  0  0  0  0  0  0  0  0
   25.2464    8.9784   18.6550 C   0  0  0  0  0  0  0  0  0  0  0  0
   25.9410    8.2885   18.1957 H   0  0  0  0  0  0  0  0  0  0  0  0
   25.6823    9.8891   19.6311 C   0  0  0  0  0  0  0  0  0  0  0  0
   24.7710   10.7835   20.2088 C   0  0  0  0  0  0  0  0  0  0  0  0
   25.1199   11.5013   20.9380 H   0  0  0  0  0  0  0  0  0  0  0  0
   29.7942   10.0151   20.8588 C   0  0  0  0  0  0  0  0  0  0  0  0
   30.8277   10.0397   21.1695 H   0  0  0  0  0  0  0  0  0  0  0  0
   27.6088    8.9710   20.9391 C   0  0  0  0  0  0  0  0  0  0  0  0
   26.9601    8.1910   21.3109 H   0  0  0  0  0  0  0  0  0  0  0  0
   27.1142    9.9391   20.0491 C   0  0  0  0  0  0  0  0  0  0  0  0
   27.9649   10.9526   19.5710 C   0  0  0  0  0  0  0  0  0  0  0  0
   27.5940   11.7096   18.8939 H   0  0  0  0  0  0  0  0  0  0  0  0
   29.3029   10.9903   19.9804 C   0  0  0  0  0  0  0  0  0  0  0  0
   29.9577   11.7680   19.6162 H   0  0  0  0  0  0  0  0  0  0  0  0
   28.9466    9.0068   21.3356 C   0  0  0  0  0  0  0  0  0  0  0  0
   29.5486    7.7874   22.4161 Cl  0  0  0  0  0  0  0  0  0  0  0  0
   18.3750   11.1498   18.9611 C   0  0  0  0  0  0  0  0  0  0  0  0
   17.3813   10.8966   18.6136 H   0  0  0  0  0  0  0  0  0  0  0  0
   18.8348   10.5062   20.0283 N   0  0  0  0  0  0  0  0  0  0  0  0
   20.0555   10.7795   20.4795 C   0  0  0  0  0  0  0  0  0  0  0  0
   20.3976   10.1944   21.3244 H   0  0  0  0  0  0  0  0  0  0  0  0
   20.9075   11.7898   19.9470 C   0  0  0  0  0  0  0  0  0  0  0  0
   20.4090   12.4080   18.7674 C   0  0  0  0  0  0  0  0  0  0  0  0
   21.0025   13.1282   18.2261 H   0  0  0  0  0  0  0  0  0  0  0  0
   19.1385   12.0978   18.2702 C   0  0  0  0  0  0  0  0  0  0  0  0
   18.7556   12.5776   17.3830 H   0  0  0  0  0  0  0  0  0  0  0  0
  1  4  2  0
  1  5  1  0
  1  6  1  0
  2  3  1  0
  2  5  1  0
  2  7  1  0
  5 14  1  6
  5 40  1  0
  6  7  1  0
  6 10  1  0
  7  8  2  0
  8  9  1  0
 10 11  1  0
 10 12  1  0
 10 13  1  0
 14 15  2  0
 14 22  1  0
 15 16  1  0
 15 17  1  0
 17 18  1  0
 17 19  2  0
 19 20  1  0
 19 21  1  0
 21 22  2  0
 21 28  1  0
 22 23  1  0
 24 25  1  0
 24 31  2  0
 24 33  1  0
 26 27  1  0
 26 28  1  0
 26 33  2  0
 28 29  2  0
 29 30  1  0
 29 31  1  0
 31 32  1  0
 33 34  1  0
 35 36  1  0
 35 37  2  0
 35 43  1  0
 37 38  1  0
 38 39  1  0
 38 40  2  0
 40 41  1  0
 41 42  1  0
 41 43  2  0
 43 44  1  0
M  END
> <intraLJ>
36.983    

> <intraEL>
-5.456    

> <intraDihe>
51.340    

> <interLJ>
0.000     

> <interEJ>
0.000     

> <gridLJ>
-5.598    

> <gridEL>
0.000     

> <totalE>
77.270    

> <LGFE>
-5.598  

> <LE>
-0.207  

> <SMILES>
[H]/N=C1\N[C@](c2cccnc2)(c2cccc(-c3cccc(Cl)c3)c2)C(=O)N1C

> <atom.dprop.GFE>
0.0210 0.3790 0.0000 -0.5630 0.0336 -0.0017 -0.0649 0.0150 0.0000 0.0523 0.0000 0.0000 0.0000 -0.1648 -0.1597 0.0000 -0.1787 0.0000 -0.1692 0.0000 -0.2022 -0.1288 0.0000 -0.1550 0.0000 -0.0974 0.0000 -0.2520 -0.1929 0.0000 -0.2148 0.0000 -0.0294 -1.8640 -0.2837 0.0000 -0.8490 0.1265 0.0000 -0.1381 -0.2660 0.0000 -0.2498 0.0000

> <atom.prop.CLASS>
GEHC IMIH NCLA FORO PRPC GEHC GEHC GENA NCLA PRPC NCLA NCLA NCLA BENC BENC NCLA BENC NCLA BENC NCLA BENC BENC NCLA BENC NCLA BENC NCLA BENC BENC NCLA BENC NCLA BENC CLBX GEHC NCLA IMIN GEHC NCLA BENC BENC NCLA BENC NCLA

> <cluster_id>
1

> <rmsd_to_cluster_rep>
0.00    

> <ligRMSD>
2.14    

> <ligCOMD>
1.11    

$$$$
bace1_merck_31_13l_907
     RDKit          3D

 44 47  0  0  1  0  0  0  0  0999 V2000
   22.9216   12.7360   19.9782 C   0  0  0  0  0  0  0  0  0  0  0  0
   22.5839   11.0082   21.5297 N   0  0  0  0  0  0  0  0  0  0  0  0
   23.1992   10.2462   21.8027 H   0  0  0  0  0  0  0  0  0  0  0  0
   23.2658   13.3806   18.9806 O   0  0  0  0  0  0  0  0  0  0  0  0
   22.5168   11.2453   20.0479 C   0  0  2  0  0  0  0  0  0  0  0  0
   22.9101   13.1753   21.2888 N   0  0  0  0  0  0  0  0  0  0  0  0
   22.7461   12.2023   22.2610 C   0  0  0  0  0  0  0  0  0  0  0  0
   22.7241   12.2298   23.6402 N   0  0  0  0  0  0  0  0  0  0  0  0
   22.5722   11.3090   23.9958 H   0  0  0  0  0  0  0  0  0  0  0  0
   23.3278   14.5224   21.6058 C   0  0  0  0  0  0  0  0  0  0  0  0
   23.3092   14.7190   22.7009 H   0  0  0  0  0  0  0  0  0  0  0  0
   22.6478   15.2531   21.1156 H   0  0  0  0  0  0  0  0  0  0  0  0
   24.3632   14.7014   21.2404 H   0  0  0  0  0  0  0  0  0  0  0  0
   23.6675   10.4852   19.4520 C   0  0  0  0  0  0  0  0  0  0  0  0
   23.4065    9.7365   18.2796 C   0  0  0  0  0  0  0  0  0  0  0  0
   22.4059    9.6859   17.8765 H   0  0  0  0  0  0  0  0  0  0  0  0
   24.4269    9.0888   17.5797 C   0  0  0  0  0  0  0  0  0  0  0  0
   24.2022    8.5486   16.6712 H   0  0  0  0  0  0  0  0  0  0  0  0
   25.7379    9.1437   18.0538 C   0  0  0  0  0  0  0  0  0  0  0  0
   26.5230    8.6412   17.5057 H   0  0  0  0  0  0  0  0  0  0  0  0
   26.0235    9.8281   19.2464 C   0  0  0  0  0  0  0  0  0  0  0  0
   24.9949   10.4827   19.9379 C   0  0  0  0  0  0  0  0  0  0  0  0
   25.2273   11.0324   20.8393 H   0  0  0  0  0  0  0  0  0  0  0  0
   30.0197   10.0035   20.8097 C   0  0  0  0  0  0  0  0  0  0  0  0
   31.0226   10.0420   21.2072 H   0  0  0  0  0  0  0  0  0  0  0  0
   27.7105    9.2984   21.0198 C   0  0  0  0  0  0  0  0  0  0  0  0
   26.9362    8.7931   21.5787 H   0  0  0  0  0  0  0  0  0  0  0  0
   27.4167    9.8911   19.7801 C   0  0  0  0  0  0  0  0  0  0  0  0
   28.4311   10.5484   19.0595 C   0  0  0  0  0  0  0  0  0  0  0  0
   28.2164   11.0173   18.1092 H   0  0  0  0  0  0  0  0  0  0  0  0
   29.7300   10.6065   19.5784 C   0  0  0  0  0  0  0  0  0  0  0  0
   30.5096   11.1120   19.0280 H   0  0  0  0  0  0  0  0  0  0  0  0
   29.0100    9.3495   21.5276 C   0  0  0  0  0  0  0  0  0  0  0  0
   29.3618    8.5896   23.0493 Cl  0  0  0  0  0  0  0  0  0  0  0  0
   18.5868   10.4706   18.4490 N   0  0  0  0  0  0  0  0  0  0  0  0
   19.0691    9.6897   19.4083 C   0  0  0  0  0  0  0  0  0  0  0  0
   18.4896    8.8183   19.6858 H   0  0  0  0  0  0  0  0  0  0  0  0
   20.2930    9.9502   20.0345 C   0  0  0  0  0  0  0  0  0  0  0  0
   20.6551    9.2619   20.7821 H   0  0  0  0  0  0  0  0  0  0  0  0
   21.0405   11.1133   19.6882 C   0  0  0  0  0  0  0  0  0  0  0  0
   20.4996   11.8873   18.6234 C   0  0  0  0  0  0  0  0  0  0  0  0
   21.0189   12.7448   18.2280 H   0  0  0  0  0  0  0  0  0  0  0  0
   19.2719   11.5355   18.0515 C   0  0  0  0  0  0  0  0  0  0  0  0
   18.8539   12.1319   17.2503 H   0  0  0  0  0  0  0  0  0  0  0  0
  1  4  2  0
  1  5  1  0
  1  6  1  0
  2  3  1  0
  2  5  1  0
  2  7  1  0
  5 14  1  6
  5 40  1  0
  6  7  1  0
  6 10  1  0
  7  8  2  0
  8  9  1  0
 10 11  1  0
 10 12  1  0
 10 13  1  0
 14 15  2  0
 14 22  1  0
 15 16  1  0
 15 17  1  0
 17 18  1  0
 17 19  2  0
 19 20  1  0
 19 21  1  0
 21 22  2  0
 21 28  1  0
 22 23  1  0
 24 25  1  0
 24 31  2  0
 24 33  1  0
 26 27  1  0
 26 28  1  0
 26 33  2  0
 28 29  2  0
 29 30  1  0
 29 31  1  0
 31 32  1  0
 33 34  1  0
 35 36  2  0
 35 43  1  0
 36 37  1  0
 36 38  1  0
 38 39  1  0
 38 40  2  0
 40 41  1  0
 41 42  1  0
 41 43  2  0
 43 44  1  0
M  END
> <intraLJ>
38.149    

> <intraEL>
-2.982    

> <intraDihe>
49.989    

> <interLJ>
0.000     

> <interEJ>
0.000     

> <gridLJ>
-5.601    

> <gridEL>
0.000     

> <totalE>
79.555    

> <LGFE>
-5.601  

> <LE>
-0.207  

> <SMILES>
[H]/N=C1\N[C@](c2ccncc2)(c2cccc(-c3cccc(Cl)c3)c2)C(=O)N1C

> <atom.dprop.GFE>
-0.1042 0.9530 0.0000 -0.5630 -0.1029 -0.0539 0.0579 0.1830 0.0000 0.0236 0.0000 0.0000 0.0000 -0.1109 -0.1054 0.0000 -0.0975 0.0000 -0.1692 0.0000 -0.2256 -0.2022 0.0000 -0.0215 0.0000 -0.0974 0.0000 -0.2520 -0.2657 0.0000 -0.1844 0.0000 -0.0294 -1.8640 -1.2840 -0.3027 0.0000 -0.1391 0.0000 -0.0822 -0.2660 0.0000 -0.2954 0.0000

> <atom.prop.CLASS>
GEHC IMIH NCLA FORO PRPC GEHC GEHC GENA NCLA PRPC NCLA NCLA NCLA BENC BENC NCLA BENC NCLA BENC NCLA BENC BENC NCLA BENC NCLA BENC NCLA BENC BENC NCLA BENC NCLA BENC CLBX IMIN GEHC NCLA BENC NCLA BENC BENC NCLA GEHC NCLA

> <cluster_id>
1

> <rmsd_to_cluster_rep>
0.00    

> <ligRMSD>
1.90    

> <ligCOMD>
1.13    

$$$$
bace1_merck_32_13m_299
     RDKit          3D

 43 46  0  0  1  0  0  0  0  0999 V2000
   22.8976   13.2378   20.1053 C   0  0  0  0  0  0  0  0  0  0  0  0
   22.3644   11.8012   21.8888 N   0  0  0  0  0  0  0  0  0  0  0  0
   22.8891   11.0273   22.2885 H   0  0  0  0  0  0  0  0  0  0  0  0
   23.2883   13.6919   19.0238 O   0  0  0  0  0  0  0  0  0  0  0  0
   22.3511   11.8240   20.3901 C   0  0  2  0  0  0  0  0  0  0  0  0
   22.9307   13.8632   21.3377 N   0  0  0  0  0  0  0  0  0  0  0  0
   22.6542   13.0679   22.4386 C   0  0  0  0  0  0  0  0  0  0  0  0
   22.6238   13.3051   23.7972 N   0  0  0  0  0  0  0  0  0  0  0  0
   22.3689   12.4703   24.2827 H   0  0  0  0  0  0  0  0  0  0  0  0
   23.4722   15.1977   21.4625 C   0  0  0  0  0  0  0  0  0  0  0  0
   23.4731   15.5518   22.5174 H   0  0  0  0  0  0  0  0  0  0  0  0
   22.8632   15.9094   20.8632 H   0  0  0  0  0  0  0  0  0  0  0  0
   24.5196   15.2252   21.0884 H   0  0  0  0  0  0  0  0  0  0  0  0
   23.4133   10.8659   19.9354 C   0  0  0  0  0  0  0  0  0  0  0  0
   23.0373    9.8787   18.9908 C   0  0  0  0  0  0  0  0  0  0  0  0
   22.0113    9.7953   18.6646 H   0  0  0  0  0  0  0  0  0  0  0  0
   23.9750    9.0215   18.4116 C   0  0  0  0  0  0  0  0  0  0  0  0
   23.6640    8.2979   17.6716 H   0  0  0  0  0  0  0  0  0  0  0  0
   25.3152    9.1037   18.7886 C   0  0  0  0  0  0  0  0  0  0  0  0
   26.0372    8.4382   18.3356 H   0  0  0  0  0  0  0  0  0  0  0  0
   25.7106   10.0302   19.7670 C   0  0  0  0  0  0  0  0  0  0  0  0
   24.7658   10.8937   20.3366 C   0  0  0  0  0  0  0  0  0  0  0  0
   25.0843   11.6245   21.0670 H   0  0  0  0  0  0  0  0  0  0  0  0
   29.8056   10.2959   21.0216 C   0  0  0  0  0  0  0  0  0  0  0  0
   30.8362   10.3554   21.3375 H   0  0  0  0  0  0  0  0  0  0  0  0
   27.7314    9.0519   20.8713 C   0  0  0  0  0  0  0  0  0  0  0  0
   27.1653    8.1535   21.0702 H   0  0  0  0  0  0  0  0  0  0  0  0
   27.1355   10.1304   20.1965 C   0  0  0  0  0  0  0  0  0  0  0  0
   27.8781   11.2978   19.9430 C   0  0  0  0  0  0  0  0  0  0  0  0
   27.4274   12.1385   19.4338 H   0  0  0  0  0  0  0  0  0  0  0  0
   29.2117   11.3790   20.3598 C   0  0  0  0  0  0  0  0  0  0  0  0
   29.7843   12.2742   20.1677 H   0  0  0  0  0  0  0  0  0  0  0  0
   29.0647    9.1344   21.2754 C   0  0  0  0  0  0  0  0  0  0  0  0
   29.7949    7.7832   22.0863 Cl  0  0  0  0  0  0  0  0  0  0  0  0
   18.4745   11.2233   18.9100 C   0  0  0  0  0  0  0  0  0  0  0  0
   17.4947   11.0182   18.4781 H   0  0  0  0  0  0  0  0  0  0  0  0
   18.7885   10.5297   20.0500 N   0  0  0  0  0  0  0  0  0  0  0  0
   19.9952   10.8073   20.5439 C   0  0  0  0  0  0  0  0  0  0  0  0
   20.2878   10.2500   21.4258 H   0  0  0  0  0  0  0  0  0  0  0  0
   20.8934   11.7841   20.0213 C   0  0  0  0  0  0  0  0  0  0  0  0
   20.4439   12.3461   18.7925 C   0  0  0  0  0  0  0  0  0  0  0  0
   21.0951   13.0233   18.2531 H   0  0  0  0  0  0  0  0  0  0  0  0
   19.2582   12.1179   18.2289 N   0  0  0  0  0  0  0  0  0  0  0  0
  1  4  2  0
  1  5  1  0
  1  6  1  0
  2  3  1  0
  2  5  1  0
  2  7  1  0
  5 14  1  6
  5 40  1  0
  6  7  1  0
  6 10  1  0
  7  8  2  0
  8  9  1  0
 10 11  1  0
 10 12  1  0
 10 13  1  0
 14 15  2  0
 14 22  1  0
 15 16  1  0
 15 17  1  0
 17 18  1  0
 17 19  2  0
 19 20  1  0
 19 21  1  0
 21 22  2  0
 21 28  1  0
 22 23  1  0
 24 25  1  0
 24 31  2  0
 24 33  1  0
 26 27  1  0
 26 28  1  0
 26 33  2  0
 28 29  2  0
 29 30  1  0
 29 31  1  0
 31 32  1  0
 33 34  1  0
 35 36  1  0
 35 37  2  0
 35 43  1  0
 37 38  1  0
 38 39  1  0
 38 40  2  0
 40 41  1  0
 41 42  1  0
 41 43  2  0
M  END
> <intraLJ>
40.984    

> <intraEL>
-17.210   

> <intraDihe>
50.921    

> <interLJ>
0.000     

> <interEJ>
0.000     

> <gridLJ>
-5.711    

> <gridEL>
0.000     

> <totalE>
68.983    

> <LGFE>
-5.711  

> <LE>
-0.212  

> <SMILES>
[H]/N=C1\N[C@](c2cncnc2)(c2cccc(-c3cccc(Cl)c3)c2)C(=O)N1C

> <atom.dprop.GFE>
-0.0057 0.3790 0.0000 -0.5630 0.0336 -0.0017 -0.0649 0.0150 0.0000 0.0523 0.0000 0.0000 0.0000 -0.1648 -0.1597 0.0000 -0.1787 0.0000 -0.1692 0.0000 -0.2022 -0.1288 0.0000 -0.1550 0.0000 -0.0974 0.0000 -0.0783 -0.1929 0.0000 -0.1349 0.0000 -0.0294 -1.8640 -0.2837 0.0000 -0.8490 -0.0721 0.0000 -0.1381 -0.2660 0.0000 -0.3910

> <atom.prop.CLASS>
GEHC IMIH NCLA FORO PRPC GEHC GEHC GENA NCLA PRPC NCLA NCLA NCLA BENC BENC NCLA BENC NCLA BENC NCLA BENC BENC NCLA BENC NCLA BENC NCLA BENC BENC NCLA BENC NCLA BENC CLBX GEHC NCLA IMIN BENC NCLA BENC BENC NCLA IMIN

> <cluster_id>
1

> <rmsd_to_cluster_rep>
0.00    

> <ligRMSD>
2.08    

> <ligCOMD>
1.06    

$$$$
bace1_merck_33_13n_187
     RDKit          3D

 43 46  0  0  1  0  0  0  0  0999 V2000
   23.0483   13.1649   20.1864 C   0  0  0  0  0  0  0  0  0  0  0  0
   23.6375   11.8688   22.0535 N   0  0  0  0  0  0  0  0  0  0  0  0
   24.5259   11.4280   22.2792 H   0  0  0  0  0  0  0  0  0  0  0  0
   22.9255   13.6073   19.0382 O   0  0  0  0  0  0  0  0  0  0  0  0
   23.1955   11.6680   20.6189 C   0  0  2  0  0  0  0  0  0  0  0  0
   23.1447   13.9006   21.3536 N   0  0  0  0  0  0  0  0  0  0  0  0
   23.5156   13.2052   22.4913 C   0  0  0  0  0  0  0  0  0  0  0  0
   23.7511   13.5826   23.7973 N   0  0  0  0  0  0  0  0  0  0  0  0
   23.9972   12.7824   24.3419 H   0  0  0  0  0  0  0  0  0  0  0  0
   23.0479   15.3427   21.3224 C   0  0  0  0  0  0  0  0  0  0  0  0
   23.1809   15.7939   22.3309 H   0  0  0  0  0  0  0  0  0  0  0  0
   22.0478   15.6449   20.9414 H   0  0  0  0  0  0  0  0  0  0  0  0
   23.8262   15.7661   20.6499 H   0  0  0  0  0  0  0  0  0  0  0  0
   24.4431   11.2129   19.8779 C   0  0  0  0  0  0  0  0  0  0  0  0
   24.3599   11.1106   18.4668 C   0  0  0  0  0  0  0  0  0  0  0  0
   23.4288   11.3143   17.9591 H   0  0  0  0  0  0  0  0  0  0  0  0
   25.4694   10.8048   17.6766 C   0  0  0  0  0  0  0  0  0  0  0  0
   25.3710   10.7572   16.6014 H   0  0  0  0  0  0  0  0  0  0  0  0
   26.7077   10.5767   18.2737 C   0  0  0  0  0  0  0  0  0  0  0  0
   27.5633   10.3516   17.6515 H   0  0  0  0  0  0  0  0  0  0  0  0
   26.8322   10.6268   19.6704 C   0  0  0  0  0  0  0  0  0  0  0  0
   25.7069   10.9236   20.4588 C   0  0  0  0  0  0  0  0  0  0  0  0
   25.8184   10.9825   21.5320 H   0  0  0  0  0  0  0  0  0  0  0  0
   30.6399    9.9221   21.5396 C   0  0  0  0  0  0  0  0  0  0  0  0
   31.5933    9.7374   22.0109 H   0  0  0  0  0  0  0  0  0  0  0  0
   28.2927    9.3738   21.2769 C   0  0  0  0  0  0  0  0  0  0  0  0
   27.4416    8.7646   21.5446 H   0  0  0  0  0  0  0  0  0  0  0  0
   28.1604   10.3901   20.3165 C   0  0  0  0  0  0  0  0  0  0  0  0
   29.2779   11.1764   19.9732 C   0  0  0  0  0  0  0  0  0  0  0  0
   29.1905   11.9669   19.2407 H   0  0  0  0  0  0  0  0  0  0  0  0
   30.5139   10.9435   20.5888 C   0  0  0  0  0  0  0  0  0  0  0  0
   31.3703   11.5476   20.3283 H   0  0  0  0  0  0  0  0  0  0  0  0
   29.5301    9.1383   21.8803 C   0  0  0  0  0  0  0  0  0  0  0  0
   29.6800    7.8642   23.0510 Cl  0  0  0  0  0  0  0  0  0  0  0  0
   19.4605    9.9248   20.2361 C   0  0  0  0  0  0  0  0  0  0  0  0
   18.4899    9.4888   20.0680 H   0  0  0  0  0  0  0  0  0  0  0  0
   20.6410    9.2679   19.8471 C   0  0  0  0  0  0  0  0  0  0  0  0
   20.5802    8.3085   19.3485 H   0  0  0  0  0  0  0  0  0  0  0  0
   21.8582    9.7840   20.0305 N   0  0  0  0  0  0  0  0  0  0  0  0
   21.9035   11.0041   20.7067 C   0  0  0  0  0  0  0  0  0  0  0  0
   20.7895   11.7641   21.0460 N   0  0  0  0  0  0  0  0  0  0  0  0
   19.6062   11.1877   20.8350 C   0  0  0  0  0  0  0  0  0  0  0  0
   18.7254   11.7507   21.1183 H   0  0  0  0  0  0  0  0  0  0  0  0
  1  4  2  0
  1  5  1  0
  1  6  1  0
  2  3  1  0
  2  5  1  0
  2  7  1  0
  5 14  1  6
  5 40  1  0
  6  7  1  0
  6 10  1  0
  7  8  2  0
  8  9  1  0
 10 11  1  0
 10 12  1  0
 10 13  1  0
 14 15  2  0
 14 22  1  0
 15 16  1  0
 15 17  1  0
 17 18  1  0
 17 19  2  0
 19 20  1  0
 19 21  1  0
 21 22  2  0
 21 28  1  0
 22 23  1  0
 24 25  1  0
 24 31  2  0
 24 33  1  0
 26 27  1  0
 26 28  1  0
 26 33  2  0
 28 29  2  0
 29 30  1  0
 29 31  1  0
 31 32  1  0
 33 34  1  0
 35 36  1  0
 35 37  2  0
 35 42  1  0
 37 38  1  0
 37 39  1  0
 39 40  2  0
 40 41  1  0
 41 42  2  0
 42 43  1  0
M  END
> <intraLJ>
49.051    

> <intraEL>
5.528     

> <intraDihe>
45.344    

> <interLJ>
0.000     

> <interEJ>
0.000     

> <gridLJ>
-5.095    

> <gridEL>
0.000     

> <totalE>
94.828    

> <LGFE>
-5.095  

> <LE>
-0.189  

> <SMILES>
[H]/N=C1\N[C@@](c2cccc(-c3cccc(Cl)c3)c2)(c2ncccn2)C(=O)N1C

> <atom.dprop.GFE>
-0.0057 -0.0480 0.0000 -0.5630 0.1265 -0.0017 -0.0619 0.0850 0.0000 0.0523 0.0000 0.0000 0.0000 -0.1795 -0.1962 0.0000 -0.2084 0.0000 -0.2533 0.0000 -0.2256 -0.1364 0.0000 0.0070 0.0000 0.0371 0.0000 -0.1216 -0.2148 0.0000 -0.0571 0.0000 -0.0294 -1.8640 -0.0830 0.0000 -0.1014 0.0000 -0.7750 0.0962 -0.2310 -0.1419 0.0000

> <atom.prop.CLASS>
GEHC IMIH NCLA FORO PRPC GEHC GEHC GENA NCLA PRPC NCLA NCLA NCLA BENC BENC NCLA BENC NCLA BENC NCLA BENC BENC NCLA BENC NCLA BENC NCLA BENC BENC NCLA BENC NCLA BENC CLBX BENC NCLA BENC NCLA IMIN GEHC IMIN BENC NCLA

> <cluster_id>
1

> <rmsd_to_cluster_rep>
0.00    

> <ligRMSD>
2.07    

> <ligCOMD>
1.13    

$$$$
bace1_merck_34_13o_744
     RDKit          3D

 41 44  0  0  1  0  0  0  0  0999 V2000
   22.9899   13.2796   20.1632 C   0  0  0  0  0  0  0  0  0  0  0  0
   22.3784   11.9854   22.0557 N   0  0  0  0  0  0  0  0  0  0  0  0
   22.8474   11.1986   22.4955 H   0  0  0  0  0  0  0  0  0  0  0  0
   23.3443   13.6453   19.0373 O   0  0  0  0  0  0  0  0  0  0  0  0
   22.3422   11.9538   20.5650 C   0  0  2  0  0  0  0  0  0  0  0  0
   23.1069   13.9619   21.3551 N   0  0  0  0  0  0  0  0  0  0  0  0
   22.7538   13.2688   22.5039 C   0  0  0  0  0  0  0  0  0  0  0  0
   22.7314   13.6131   23.8342 N   0  0  0  0  0  0  0  0  0  0  0  0
   22.4085   12.8410   24.3790 H   0  0  0  0  0  0  0  0  0  0  0  0
   23.6315   15.3084   21.3858 C   0  0  0  0  0  0  0  0  0  0  0  0
   23.6751   15.7173   22.4199 H   0  0  0  0  0  0  0  0  0  0  0  0
   22.9873   15.9810   20.7780 H   0  0  0  0  0  0  0  0  0  0  0  0
   24.6608   15.3277   20.9650 H   0  0  0  0  0  0  0  0  0  0  0  0
   23.3127   10.8483   20.0928 C   0  0  0  0  0  0  0  0  0  0  0  0
   22.9531    9.7940   19.2075 C   0  0  0  0  0  0  0  0  0  0  0  0
   21.9334    9.6818   18.8717 H   0  0  0  0  0  0  0  0  0  0  0  0
   23.8893    8.8992   18.6838 C   0  0  0  0  0  0  0  0  0  0  0  0
   23.5716    8.1287   17.9955 H   0  0  0  0  0  0  0  0  0  0  0  0
   25.2326    9.0046   19.0338 C   0  0  0  0  0  0  0  0  0  0  0  0
   25.9466    8.3093   18.6132 H   0  0  0  0  0  0  0  0  0  0  0  0
   25.6439    9.9929   19.9360 C   0  0  0  0  0  0  0  0  0  0  0  0
   24.6925   10.8842   20.4625 C   0  0  0  0  0  0  0  0  0  0  0  0
   25.0343   11.6563   21.1363 H   0  0  0  0  0  0  0  0  0  0  0  0
   29.7993   10.2908   21.0050 C   0  0  0  0  0  0  0  0  0  0  0  0
   30.8431   10.3576   21.2728 H   0  0  0  0  0  0  0  0  0  0  0  0
   27.7224    9.0383   20.9709 C   0  0  0  0  0  0  0  0  0  0  0  0
   27.1713    8.1399   21.2082 H   0  0  0  0  0  0  0  0  0  0  0  0
   27.0885   10.1049   20.3121 C   0  0  0  0  0  0  0  0  0  0  0  0
   27.8204   11.2689   20.0036 C   0  0  0  0  0  0  0  0  0  0  0  0
   27.3459   12.1002   19.5005 H   0  0  0  0  0  0  0  0  0  0  0  0
   29.1728   11.3606   20.3537 C   0  0  0  0  0  0  0  0  0  0  0  0
   29.7332   12.2535   20.1193 H   0  0  0  0  0  0  0  0  0  0  0  0
   29.0741    9.1326   21.3107 C   0  0  0  0  0  0  0  0  0  0  0  0
   29.8494    7.8040   22.1147 Cl  0  0  0  0  0  0  0  0  0  0  0  0
   18.7805   11.1715   20.0490 C   0  0  0  0  0  0  0  0  0  0  0  0
   17.8928   10.7737   20.5260 H   0  0  0  0  0  0  0  0  0  0  0  0
   19.9604   11.2360   20.8050 N   0  0  0  0  0  0  0  0  0  0  0  0
   20.9371   11.7533   20.0706 C   0  0  0  0  0  0  0  0  0  0  0  0
   20.5053   12.1626   18.4604 S   0  0  0  0  0  0  0  0  0  0  0  0
   18.8988   11.6430   18.7634 C   0  0  0  0  0  0  0  0  0  0  0  0
   18.1461   11.7072   17.9883 H   0  0  0  0  0  0  0  0  0  0  0  0
  1  4  2  0
  1  5  1  0
  1  6  1  0
  2  3  1  0
  2  5  1  0
  2  7  1  0
  5 14  1  6
  5 38  1  0
  6  7  1  0
  6 10  1  0
  7  8  2  0
  8  9  1  0
 10 11  1  0
 10 12  1  0
 10 13  1  0
 14 15  2  0
 14 22  1  0
 15 16  1  0
 15 17  1  0
 17 18  1  0
 17 19  2  0
 19 20  1  0
 19 21  1  0
 21 22  2  0
 21 28  1  0
 22 23  1  0
 24 25  1  0
 24 31  2  0
 24 33  1  0
 26 27  1  0
 26 28  1  0
 26 33  2  0
 28 29  2  0
 29 30  1  0
 29 31  1  0
 31 32  1  0
 33 34  1  0
 35 36  1  0
 35 37  1  0
 35 40  2  0
 37 38  2  0
 38 39  1  0
 39 40  1  0
 40 41  1  0
M  END
> <intraLJ>
26.794    

> <intraEL>
1.629     

> <intraDihe>
49.256    

> <interLJ>
0.000     

> <interEJ>
0.000     

> <gridLJ>
-4.816    

> <gridEL>
0.000     

> <totalE>
72.863    

> <LGFE>
-4.816  

> <LE>
-0.185  

> <SMILES>
[H]/N=C1\N[C@@](c2cccc(-c3cccc(Cl)c3)c2)(c2nccs2)C(=O)N1C

> <atom.dprop.GFE>
-0.0057 0.1400 0.0000 -0.5630 0.0336 -0.0017 -0.0649 0.0150 0.0000 0.0523 0.0000 0.0000 0.0000 -0.0553 -0.1109 0.0000 -0.1787 0.0000 -0.1692 0.0000 -0.2022 -0.1288 0.0000 -0.1550 0.0000 -0.0974 0.0000 -0.0783 -0.1446 0.0000 -0.1349 0.0000 -0.0294 -1.8640 -0.2244 0.0000 -0.2310 0.0000 -0.3223 -0.2954 0.0000

> <atom.prop.CLASS>
GEHC IMIH NCLA FORO PRPC GEHC GEHC GENA NCLA PRPC NCLA NCLA NCLA BENC BENC NCLA BENC NCLA BENC NCLA BENC BENC NCLA BENC NCLA BENC NCLA BENC BENC NCLA BENC NCLA BENC CLBX GEHC NCLA IMIN NCLA PRPC GEHC NCLA

> <cluster_id>
1

> <rmsd_to_cluster_rep>
0.00    

> <ligRMSD>
2.22    

> <ligCOMD>
1.00    

$$$$
bace1_merck_35_17a_96
     RDKit          3D

 42 45  0  0  1  0  0  0  0  0999 V2000
   29.7049    7.8582   22.8794 Cl  0  0  0  0  0  0  0  0  0  0  0  0
   23.4245   13.2727   19.5240 C   0  0  0  0  0  0  0  0  0  0  0  0
   22.3008   11.8319   21.0492 N   0  0  0  0  0  0  0  0  0  0  0  0
   22.6045   11.0034   21.5538 H   0  0  0  0  0  0  0  0  0  0  0  0
   24.0158   13.7515   18.5509 O   0  0  0  0  0  0  0  0  0  0  0  0
   22.7783   11.9198   19.6425 C   0  0  2  0  0  0  0  0  0  0  0  0
   23.1841   13.8432   20.7586 N   0  0  0  0  0  0  0  0  0  0  0  0
   22.5259   13.0621   21.7019 C   0  0  0  0  0  0  0  0  0  0  0  0
   22.1048   13.3077   22.9942 N   0  0  0  0  0  0  0  0  0  0  0  0
   22.3424   14.2378   23.2705 H   0  0  0  0  0  0  0  0  0  0  0  0
   23.6770   15.1682   21.0527 C   0  0  0  0  0  0  0  0  0  0  0  0
   23.4238   15.4935   22.0858 H   0  0  0  0  0  0  0  0  0  0  0  0
   23.2351   15.9025   20.3439 H   0  0  0  0  0  0  0  0  0  0  0  0
   24.7839   15.1953   20.9456 H   0  0  0  0  0  0  0  0  0  0  0  0
   23.7840   10.8202   19.3717 C   0  0  0  0  0  0  0  0  0  0  0  0
   29.2722   11.4114   21.0479 C   0  0  0  0  0  0  0  0  0  0  0  0
   30.1227   12.9190   20.9340 Cl  0  0  0  0  0  0  0  0  0  0  0  0
   23.5896    9.7931   18.4075 C   0  0  0  0  0  0  0  0  0  0  0  0
   22.6793    9.7025   17.8367 H   0  0  0  0  0  0  0  0  0  0  0  0
   24.5886    8.8649   18.1077 C   0  0  0  0  0  0  0  0  0  0  0  0
   24.4157    8.1092   17.3545 H   0  0  0  0  0  0  0  0  0  0  0  0
   25.8125    8.9201   18.7693 C   0  0  0  0  0  0  0  0  0  0  0  0
   26.5803    8.2030   18.5127 H   0  0  0  0  0  0  0  0  0  0  0  0
   26.0404    9.8996   19.7509 C   0  0  0  0  0  0  0  0  0  0  0  0
   25.0243   10.8222   20.0458 C   0  0  0  0  0  0  0  0  0  0  0  0
   25.2100   11.5998   20.7737 H   0  0  0  0  0  0  0  0  0  0  0  0
   27.3715   10.0324   20.4271 C   0  0  0  0  0  0  0  0  0  0  0  0
   28.0783   11.2447   20.3456 C   0  0  0  0  0  0  0  0  0  0  0  0
   27.6871   12.0655   19.7619 H   0  0  0  0  0  0  0  0  0  0  0  0
   29.7754   10.3718   21.8375 C   0  0  0  0  0  0  0  0  0  0  0  0
   30.6966   10.5046   22.3842 H   0  0  0  0  0  0  0  0  0  0  0  0
   27.8937    8.9819   21.2056 C   0  0  0  0  0  0  0  0  0  0  0  0
   27.3625    8.0443   21.2831 H   0  0  0  0  0  0  0  0  0  0  0  0
   29.0868    9.1560   21.9090 C   0  0  0  0  0  0  0  0  0  0  0  0
   20.1960   12.2277   19.0492 C   0  0  0  0  0  0  0  0  0  0  0  0
   19.6007   12.5583   18.2131 H   0  0  0  0  0  0  0  0  0  0  0  0
   20.0303   12.7095   19.9966 H   0  0  0  0  0  0  0  0  0  0  0  0
   21.5995   11.7405   18.7106 C   0  0  0  0  0  0  0  0  0  0  0  0
   21.8620   11.8078   17.6643 H   0  0  0  0  0  0  0  0  0  0  0  0
   20.5159   10.7324   19.0878 C   0  0  0  0  0  0  0  0  0  0  0  0
   20.5736   10.2718   20.0592 H   0  0  0  0  0  0  0  0  0  0  0  0
   20.1202   10.1423   18.2772 H   0  0  0  0  0  0  0  0  0  0  0  0
  1 34  1  0
  2  5  2  0
  2  6  1  0
  2  7  1  0
  3  4  1  0
  3  6  1  0
  3  8  1  0
  6 15  1  0
  6 38  1  6
  7  8  1  0
  7 11  1  0
  8  9  2  0
  9 10  1  0
 11 12  1  0
 11 13  1  0
 11 14  1  0
 15 18  2  0
 15 25  1  0
 16 17  1  0
 16 28  2  0
 16 30  1  0
 18 19  1  0
 18 20  1  0
 20 21  1  0
 20 22  2  0
 22 23  1  0
 22 24  1  0
 24 25  2  0
 24 27  1  0
 25 26  1  0
 27 28  1  0
 27 32  2  0
 28 29  1  0
 30 31  1  0
 30 34  2  0
 32 33  1  0
 32 34  1  0
 35 36  1  0
 35 37  1  0
 35 38  1  0
 35 40  1  0
 38 39  1  0
 38 40  1  0
 40 41  1  0
 40 42  1  0
M  END
> <intraLJ>
23.983    

> <intraEL>
-1.975    

> <intraDihe>
42.566    

> <interLJ>
0.000     

> <interEJ>
0.000     

> <gridLJ>
-5.007    

> <gridEL>
0.000     

> <totalE>
59.567    

> <LGFE>
-5.007  

> <LE>
-0.200  

> <SMILES>
[H]/N=C1/N[C@@](c2cccc(-c3cc(Cl)cc(Cl)c3)c2)(C2CC2)C(=O)N1C

> <atom.dprop.GFE>
-1.8640 0.0210 0.1400 0.0000 -0.6340 -0.1412 -0.0140 -0.0293 -0.4080 0.0000 0.0523 0.0000 0.0000 0.0000 -0.1648 -0.1349 0.0480 -0.1597 0.0000 -0.1787 0.0000 -0.1692 0.0000 -0.2256 -0.1845 0.0000 -0.0783 -0.0364 0.0000 -0.0035 0.0000 0.0371 0.0000 -0.0294 -0.3223 0.0000 0.0000 -0.2135 0.0000 -0.3140 0.0000 0.0000

> <atom.prop.CLASS>
CLBX GEHC IMIH NCLA FORO PRPC GEHC GEHC GENA NCLA PRPC NCLA NCLA NCLA BENC BENC CLBX BENC NCLA BENC NCLA BENC NCLA BENC BENC NCLA BENC BENC NCLA BENC NCLA BENC NCLA BENC PRPC NCLA NCLA PRPC NCLA PRPC NCLA NCLA

> <cluster_id>
1

> <rmsd_to_cluster_rep>
0.00    

> <ligRMSD>
2.55    

> <ligCOMD>
1.41    

$$$$
bace1_merck_36_17b_482
     RDKit          3D

 46 49  0  0  1  0  0  0  0  0999 V2000
   18.7268   10.5587   19.0345 O   0  0  0  0  0  0  0  0  0  0  0  0
   18.8494    9.2365   18.5147 C   0  0  0  0  0  0  0  0  0  0  0  0
   17.9298    8.9896   17.9428 H   0  0  0  0  0  0  0  0  0  0  0  0
   18.9548    8.4963   19.3382 H   0  0  0  0  0  0  0  0  0  0  0  0
   19.7180    9.1620   17.8238 H   0  0  0  0  0  0  0  0  0  0  0  0
   27.0434   11.9272   22.0419 C   0  0  0  0  0  0  0  0  0  0  0  0
   27.2074   11.5666   19.6955 N   0  0  0  0  0  0  0  0  0  0  0  0
   26.5132   11.3187   18.9956 H   0  0  0  0  0  0  0  0  0  0  0  0
   26.8697   11.8001   23.2582 O   0  0  0  0  0  0  0  0  0  0  0  0
   27.0746   10.8498   20.9928 C   0  0  2  0  0  0  0  0  0  0  0  0
   27.2583   13.0805   21.3126 N   0  0  0  0  0  0  0  0  0  0  0  0
   27.3704   12.9478   19.9327 C   0  0  0  0  0  0  0  0  0  0  0  0
   27.6093   13.8538   18.9173 N   0  0  0  0  0  0  0  0  0  0  0  0
   27.7120   14.7765   19.2861 H   0  0  0  0  0  0  0  0  0  0  0  0
   27.2767   14.3624   21.9770 C   0  0  0  0  0  0  0  0  0  0  0  0
   27.4463   15.2027   21.2681 H   0  0  0  0  0  0  0  0  0  0  0  0
   28.0900   14.3841   22.7354 H   0  0  0  0  0  0  0  0  0  0  0  0
   26.3071   14.5382   22.4930 H   0  0  0  0  0  0  0  0  0  0  0  0
   25.7861   10.0511   21.0098 C   0  0  0  0  0  0  0  0  0  0  0  0
   20.7627   12.8666   21.1073 C   0  0  0  0  0  0  0  0  0  0  0  0
   20.6812   13.8628   21.5172 H   0  0  0  0  0  0  0  0  0  0  0  0
   25.7220    8.6592   21.2910 C   0  0  0  0  0  0  0  0  0  0  0  0
   26.6053    8.0665   21.4678 H   0  0  0  0  0  0  0  0  0  0  0  0
   24.5045    7.9831   21.3983 C   0  0  0  0  0  0  0  0  0  0  0  0
   24.4919    6.9277   21.6309 H   0  0  0  0  0  0  0  0  0  0  0  0
   23.3058    8.6681   21.2155 C   0  0  0  0  0  0  0  0  0  0  0  0
   22.3731    8.1298   21.3134 H   0  0  0  0  0  0  0  0  0  0  0  0
   23.3161   10.0392   20.9156 C   0  0  0  0  0  0  0  0  0  0  0  0
   24.5513   10.7044   20.8068 C   0  0  0  0  0  0  0  0  0  0  0  0
   24.5661   11.7681   20.6146 H   0  0  0  0  0  0  0  0  0  0  0  0
   22.0390   10.8210   20.7810 C   0  0  0  0  0  0  0  0  0  0  0  0
   21.9200   12.1138   21.3267 C   0  0  0  0  0  0  0  0  0  0  0  0
   22.7313   12.5546   21.8895 H   0  0  0  0  0  0  0  0  0  0  0  0
   19.7181   12.3355   20.3420 C   0  0  0  0  0  0  0  0  0  0  0  0
   18.8314   12.9271   20.1671 H   0  0  0  0  0  0  0  0  0  0  0  0
   20.9681   10.2871   20.0405 C   0  0  0  0  0  0  0  0  0  0  0  0
   21.0829    9.2903   19.6480 H   0  0  0  0  0  0  0  0  0  0  0  0
   19.8046   11.0433   19.8028 C   0  0  0  0  0  0  0  0  0  0  0  0
   29.6156   10.1582   20.5458 C   0  0  0  0  0  0  0  0  0  0  0  0
   30.4556    9.7884   21.1118 H   0  0  0  0  0  0  0  0  0  0  0  0
   29.7628   11.0527   19.9665 H   0  0  0  0  0  0  0  0  0  0  0  0
   28.2416    9.8976   21.1523 C   0  0  0  0  0  0  0  0  0  0  0  0
   28.2570    9.3924   22.1077 H   0  0  0  0  0  0  0  0  0  0  0  0
   28.7021    9.0922   19.9389 C   0  0  0  0  0  0  0  0  0  0  0  0
   28.2554    9.3194   18.9860 H   0  0  0  0  0  0  0  0  0  0  0  0
   28.9766    8.0677   20.1314 H   0  0  0  0  0  0  0  0  0  0  0  0
  1  2  1  0
  1 38  1  0
  2  3  1  0
  2  4  1  0
  2  5  1  0
  6  9  2  0
  6 10  1  0
  6 11  1  0
  7  8  1  0
  7 10  1  0
  7 12  1  0
 10 19  1  0
 10 42  1  1
 11 12  1  0
 11 15  1  0
 12 13  2  0
 13 14  1  0
 15 16  1  0
 15 17  1  0
 15 18  1  0
 19 22  2  0
 19 29  1  0
 20 21  1  0
 20 32  2  0
 20 34  1  0
 22 23  1  0
 22 24  1  0
 24 25  1  0
 24 26  2  0
 26 27  1  0
 26 28  1  0
 28 29  2  0
 28 31  1  0
 29 30  1  0
 31 32  1  0
 31 36  2  0
 32 33  1  0
 34 35  1  0
 34 38  2  0
 36 37  1  0
 36 38  1  0
 39 40  1  0
 39 41  1  0
 39 42  1  0
 39 44  1  0
 42 43  1  0
 42 44  1  0
 44 45  1  0
 44 46  1  0
M  END
> <intraLJ>
28.078    

> <intraEL>
-0.758    

> <intraDihe>
40.514    

> <interLJ>
0.000     

> <interEJ>
0.000     

> <gridLJ>
-3.441    

> <gridEL>
0.000     

> <totalE>
64.393    

> <LGFE>
-3.441  

> <LE>
-0.138  

> <SMILES>
[H]/N=C1/N[C@@](c2cccc(-c3cccc(OC)c3)c2)(C2CC2)C(=O)N1C

> <atom.dprop.GFE>
-1.3330 -0.3973 0.0000 0.0000 0.0000 0.2627 0.1650 0.0000 -0.4010 -0.3703 0.1225 0.0440 -0.0940 0.0000 0.1888 0.0000 0.0000 0.0000 -0.1085 0.0094 0.0000 0.4035 0.0000 0.2186 0.0000 0.2867 0.0000 -0.0245 -0.1024 0.0000 0.0179 0.0364 0.0000 -0.0807 0.0000 -0.0595 0.0000 -0.2136 -0.7416 0.0000 0.0000 -0.4958 0.0000 -0.7739 0.0000 0.0000

> <atom.prop.CLASS>
DMEO PRPC NCLA NCLA NCLA GEHC IMIH NCLA FORO PRPC GEHC GEHC GENA NCLA PRPC NCLA NCLA NCLA BENC BENC NCLA BENC NCLA BENC NCLA BENC NCLA BENC BENC NCLA BENC BENC NCLA BENC NCLA BENC NCLA BENC PRPC NCLA NCLA PRPC NCLA PRPC NCLA NCLA

> <cluster_id>
1

> <rmsd_to_cluster_rep>
0.00    

> <ligRMSD>
6.92    

> <ligCOMD>
1.08    

$$$$
bace1_merck_37_17c_857
     RDKit          3D

 43 46  0  0  1  0  0  0  0  0999 V2000
   25.4211   11.9695   18.7117 C   0  0  0  0  0  0  0  0  0  0  0  0
   25.4365    9.7826   19.6500 N   0  0  0  0  0  0  0  0  0  0  0  0
   25.2223    9.4416   20.5833 H   0  0  0  0  0  0  0  0  0  0  0  0
   25.6480   13.1542   18.4455 O   0  0  0  0  0  0  0  0  0  0  0  0
   26.2085   11.0539   19.6081 C   0  0  2  0  0  0  0  0  0  0  0  0
   24.3954   11.1610   18.2622 N   0  0  0  0  0  0  0  0  0  0  0  0
   24.3422    9.8648   18.7634 C   0  0  0  0  0  0  0  0  0  0  0  0
   23.4979    8.7980   18.5234 N   0  0  0  0  0  0  0  0  0  0  0  0
   22.7974    9.0470   17.8561 H   0  0  0  0  0  0  0  0  0  0  0  0
   23.3906   11.6950   17.3733 C   0  0  0  0  0  0  0  0  0  0  0  0
   22.6206   10.9388   17.1039 H   0  0  0  0  0  0  0  0  0  0  0  0
   23.8670   12.0495   16.4329 H   0  0  0  0  0  0  0  0  0  0  0  0
   22.8745   12.5550   17.8543 H   0  0  0  0  0  0  0  0  0  0  0  0
   26.3153   11.6355   21.0034 C   0  0  0  0  0  0  0  0  0  0  0  0
   22.4436   14.3551   24.9163 C   0  0  0  0  0  0  0  0  0  0  0  0
   22.2934   15.3216   25.3748 H   0  0  0  0  0  0  0  0  0  0  0  0
   27.5401   12.0526   21.5925 C   0  0  0  0  0  0  0  0  0  0  0  0
   28.4887   11.9369   21.0930 H   0  0  0  0  0  0  0  0  0  0  0  0
   27.5830   12.6798   22.8392 C   0  0  0  0  0  0  0  0  0  0  0  0
   28.5296   13.0011   23.2502 H   0  0  0  0  0  0  0  0  0  0  0  0
   26.4062   12.9009   23.5497 C   0  0  0  0  0  0  0  0  0  0  0  0
   26.4590   13.3996   24.5078 H   0  0  0  0  0  0  0  0  0  0  0  0
   25.1724   12.4878   23.0199 C   0  0  0  0  0  0  0  0  0  0  0  0
   25.1470   11.8530   21.7662 C   0  0  0  0  0  0  0  0  0  0  0  0
   24.1972   11.5675   21.3361 H   0  0  0  0  0  0  0  0  0  0  0  0
   23.8800   12.7858   23.7266 C   0  0  0  0  0  0  0  0  0  0  0  0
   23.6783   14.0391   24.3416 C   0  0  0  0  0  0  0  0  0  0  0  0
   24.4599   14.7865   24.3479 H   0  0  0  0  0  0  0  0  0  0  0  0
   21.3989   13.4251   24.8836 C   0  0  0  0  0  0  0  0  0  0  0  0
   20.4458   13.6837   25.3231 H   0  0  0  0  0  0  0  0  0  0  0  0
   22.8283   11.8467   23.7214 C   0  0  0  0  0  0  0  0  0  0  0  0
   22.9646   10.8781   23.2582 H   0  0  0  0  0  0  0  0  0  0  0  0
   21.5913   12.1697   24.2898 C   0  0  0  0  0  0  0  0  0  0  0  0
   27.9129    9.6249   18.1304 C   0  0  0  0  0  0  0  0  0  0  0  0
   28.7093    9.8071   17.4267 H   0  0  0  0  0  0  0  0  0  0  0  0
   27.1094    8.9829   17.8149 H   0  0  0  0  0  0  0  0  0  0  0  0
   27.6024   10.7677   19.0900 C   0  0  0  0  0  0  0  0  0  0  0  0
   28.1978   11.6575   18.9417 H   0  0  0  0  0  0  0  0  0  0  0  0
   28.3323    9.5258   19.5979 C   0  0  0  0  0  0  0  0  0  0  0  0
   27.7820    8.8370   20.2159 H   0  0  0  0  0  0  0  0  0  0  0  0
   29.3842    9.6482   19.7993 H   0  0  0  0  0  0  0  0  0  0  0  0
   20.5222   11.2135   24.2514 C   0  0  0  0  0  0  0  0  0  0  0  0
   19.6432   10.4278   24.2221 N   0  0  0  0  0  0  0  0  0  0  0  0
  1  4  2  0
  1  5  1  0
  1  6  1  0
  2  3  1  0
  2  5  1  0
  2  7  1  0
  5 14  1  0
  5 37  1  6
  6  7  1  0
  6 10  1  0
  7  8  2  0
  8  9  1  0
 10 11  1  0
 10 12  1  0
 10 13  1  0
 14 17  2  0
 14 24  1  0
 15 16  1  0
 15 27  2  0
 15 29  1  0
 17 18  1  0
 17 19  1  0
 19 20  1  0
 19 21  2  0
 21 22  1  0
 21 23  1  0
 23 24  2  0
 23 26  1  0
 24 25  1  0
 26 27  1  0
 26 31  2  0
 27 28  1  0
 29 30  1  0
 29 33  2  0
 31 32  1  0
 31 33  1  0
 33 42  1  0
 34 35  1  0
 34 36  1  0
 34 37  1  0
 34 39  1  0
 37 38  1  0
 37 39  1  0
 39 40  1  0
 39 41  1  0
 42 43  3  0
M  END
> <intraLJ>
25.552    

> <intraEL>
0.408     

> <intraDihe>
40.529    

> <interLJ>
0.000     

> <interEJ>
0.000     

> <gridLJ>
-4.354    

> <gridEL>
0.000     

> <totalE>
62.135    

> <LGFE>
-4.354  

> <LE>
-0.174  

> <SMILES>
[H]/N=C1/N[C@@](c2cccc(-c3cccc(C#N)c3)c2)(C2CC2)C(=O)N1C

> <atom.dprop.GFE>
-0.1515 -0.1310 0.0000 -0.7200 -0.4456 -0.2711 -0.2970 -0.9770 0.0000 -0.3913 0.0000 0.0000 0.0000 -0.1097 0.0436 0.0000 0.1121 0.0000 0.3215 0.0000 0.2971 0.0000 0.0924 0.0371 0.0000 0.0296 0.0047 0.0000 0.0302 0.0000 0.0514 0.0000 0.1246 -0.4759 0.0000 0.0000 -0.7542 0.0000 -0.7739 0.0000 0.0000 0.0000 0.0000

> <atom.prop.CLASS>
GEHC IMIH NCLA FORO PRPC GEHC GEHC GENA NCLA PRPC NCLA NCLA NCLA BENC BENC NCLA BENC NCLA BENC NCLA BENC NCLA BENC BENC NCLA BENC BENC NCLA BENC NCLA BENC NCLA BENC PRPC NCLA NCLA PRPC NCLA PRPC NCLA NCLA NCLA NCLA

> <cluster_id>
1

> <rmsd_to_cluster_rep>
0.00    

> <ligRMSD>
6.52    

> <ligCOMD>
1.08    

$$$$
bace1_merck_38_17d_395
     RDKit          3D

 41 44  0  0  1  0  0  0  0  0999 V2000
   20.8824   12.5397   26.3049 H   0  0  0  0  0  0  0  0  0  0  0  0
   24.8336   12.0212   18.6273 C   0  0  0  0  0  0  0  0  0  0  0  0
   24.8486    9.7989   19.4793 N   0  0  0  0  0  0  0  0  0  0  0  0
   24.5540    9.4082   20.3703 H   0  0  0  0  0  0  0  0  0  0  0  0
   25.0376   13.2226   18.4262 O   0  0  0  0  0  0  0  0  0  0  0  0
   25.5606   11.1026   19.5708 C   0  0  2  0  0  0  0  0  0  0  0  0
   23.8981   11.1913   18.0411 N   0  0  0  0  0  0  0  0  0  0  0  0
   23.8508    9.8744   18.4846 C   0  0  0  0  0  0  0  0  0  0  0  0
   23.0837    8.7873   18.1135 N   0  0  0  0  0  0  0  0  0  0  0  0
   22.4479    9.0383   17.3851 H   0  0  0  0  0  0  0  0  0  0  0  0
   22.9701   11.7183   17.0684 C   0  0  0  0  0  0  0  0  0  0  0  0
   22.2661   10.9433   16.6927 H   0  0  0  0  0  0  0  0  0  0  0  0
   23.5269   12.1272   16.1968 H   0  0  0  0  0  0  0  0  0  0  0  0
   22.3692   12.5381   17.5204 H   0  0  0  0  0  0  0  0  0  0  0  0
   25.4926   11.6288   20.9901 C   0  0  0  0  0  0  0  0  0  0  0  0
   20.3857   13.0209   23.0096 N   0  0  0  0  0  0  0  0  0  0  0  0
   26.6317   12.0291   21.7414 C   0  0  0  0  0  0  0  0  0  0  0  0
   27.6360   11.9327   21.3608 H   0  0  0  0  0  0  0  0  0  0  0  0
   26.5127   12.6165   23.0031 C   0  0  0  0  0  0  0  0  0  0  0  0
   27.3979   12.9282   23.5391 H   0  0  0  0  0  0  0  0  0  0  0  0
   25.2528   12.8127   23.5663 C   0  0  0  0  0  0  0  0  0  0  0  0
   25.1784   13.2803   24.5384 H   0  0  0  0  0  0  0  0  0  0  0  0
   24.0996   12.4029   22.8756 C   0  0  0  0  0  0  0  0  0  0  0  0
   24.2374   11.8119   21.6093 C   0  0  0  0  0  0  0  0  0  0  0  0
   23.3513   11.5302   21.0579 H   0  0  0  0  0  0  0  0  0  0  0  0
   22.7229   12.6416   23.4260 C   0  0  0  0  0  0  0  0  0  0  0  0
   21.6375   12.9208   22.5705 C   0  0  0  0  0  0  0  0  0  0  0  0
   21.7937   13.0099   21.5022 H   0  0  0  0  0  0  0  0  0  0  0  0
   20.1220   12.8874   24.3076 C   0  0  0  0  0  0  0  0  0  0  0  0
   19.0897   12.9786   24.6198 H   0  0  0  0  0  0  0  0  0  0  0  0
   22.4420   12.5195   24.8051 C   0  0  0  0  0  0  0  0  0  0  0  0
   23.2267   12.3111   25.5191 H   0  0  0  0  0  0  0  0  0  0  0  0
   21.1232   12.6408   25.2585 C   0  0  0  0  0  0  0  0  0  0  0  0
   27.4715    9.8189   18.2243 C   0  0  0  0  0  0  0  0  0  0  0  0
   28.3309   10.0669   17.6222 H   0  0  0  0  0  0  0  0  0  0  0  0
   26.7347    9.1659   17.7907 H   0  0  0  0  0  0  0  0  0  0  0  0
   27.0128   10.8971   19.1984 C   0  0  0  0  0  0  0  0  0  0  0  0
   27.5829   11.8145   19.1603 H   0  0  0  0  0  0  0  0  0  0  0  0
   27.7335    9.6569   19.7226 C   0  0  0  0  0  0  0  0  0  0  0  0
   27.1488    8.9170   20.2419 H   0  0  0  0  0  0  0  0  0  0  0  0
   28.7516    9.8057   20.0441 H   0  0  0  0  0  0  0  0  0  0  0  0
  1 33  1  0
  2  5  2  0
  2  6  1  0
  2  7  1  0
  3  4  1  0
  3  6  1  0
  3  8  1  0
  6 15  1  0
  6 37  1  6
  7  8  1  0
  7 11  1  0
  8  9  2  0
  9 10  1  0
 11 12  1  0
 11 13  1  0
 11 14  1  0
 15 17  2  0
 15 24  1  0
 16 27  2  0
 16 29  1  0
 17 18  1  0
 17 19  1  0
 19 20  1  0
 19 21  2  0
 21 22  1  0
 21 23  1  0
 23 24  2  0
 23 26  1  0
 24 25  1  0
 26 27  1  0
 26 31  2  0
 27 28  1  0
 29 30  1  0
 29 33  2  0
 31 32  1  0
 31 33  1  0
 34 35  1  0
 34 36  1  0
 34 37  1  0
 34 39  1  0
 37 38  1  0
 37 39  1  0
 39 40  1  0
 39 41  1  0
M  END
> <intraLJ>
27.325    

> <intraEL>
0.104     

> <intraDihe>
39.681    

> <interLJ>
0.000     

> <interEJ>
0.000     

> <gridLJ>
-5.570    

> <gridEL>
0.000     

> <totalE>
61.540    

> <LGFE>
-5.570  

> <LE>
-0.242  

> <SMILES>
[H]/N=C1/N[C@@](c2cccc(-c3cccnc3)c2)(C2CC2)C(=O)N1C

> <atom.dprop.GFE>
0.0000 -0.2244 -0.7860 0.0000 -0.7200 -0.3330 -0.3020 -0.2970 -0.9770 0.0000 -0.3913 0.0000 0.0000 0.0000 -0.1364 -0.2440 0.0736 0.0000 0.2007 0.0000 0.1284 0.0000 0.0332 0.0341 0.0000 0.0514 -0.0240 0.0000 -0.0456 0.0000 0.1505 0.0000 0.1226 -0.6500 0.0000 0.0000 -0.5911 0.0000 -0.6430 0.0000 0.0000

> <atom.prop.CLASS>
NCLA GEHC IMIH NCLA FORO PRPC GEHC GEHC GENA NCLA PRPC NCLA NCLA NCLA BENC IMIN BENC NCLA BENC NCLA BENC NCLA BENC BENC NCLA BENC GEHC NCLA GEHC NCLA BENC NCLA BENC PRPC NCLA NCLA PRPC NCLA PRPC NCLA NCLA

> <cluster_id>
1

> <rmsd_to_cluster_rep>
0.00    

> <ligRMSD>
6.27    

> <ligCOMD>
1.04    

$$$$
bace1_merck_39_17e_729
     RDKit          3D

 45 48  0  0  1  0  0  0  0  0999 V2000
   30.2774    9.0244   21.5802 O   0  0  0  0  0  0  0  0  0  0  0  0
   29.8138    7.8391   22.2253 C   0  0  0  0  0  0  0  0  0  0  0  0
   30.6858    7.2948   22.6458 H   0  0  0  0  0  0  0  0  0  0  0  0
   29.3035    7.1672   21.5002 H   0  0  0  0  0  0  0  0  0  0  0  0
   29.1241    8.0872   23.0622 H   0  0  0  0  0  0  0  0  0  0  0  0
   22.5444   13.0281   22.1754 C   0  0  0  0  0  0  0  0  0  0  0  0
   20.9172   11.8693   20.8824 N   0  0  0  0  0  0  0  0  0  0  0  0
   20.7602   10.8791   20.7151 H   0  0  0  0  0  0  0  0  0  0  0  0
   23.5938   13.4911   22.6336 O   0  0  0  0  0  0  0  0  0  0  0  0
   22.3454   12.2880   20.8809 C   0  0  2  0  0  0  0  0  0  0  0  0
   21.2733   13.0621   22.7156 N   0  0  0  0  0  0  0  0  0  0  0  0
   20.2666   12.4099   22.0118 C   0  0  0  0  0  0  0  0  0  0  0  0
   18.9100   12.2645   22.2295 N   0  0  0  0  0  0  0  0  0  0  0  0
   18.6366   12.7301   23.0700 H   0  0  0  0  0  0  0  0  0  0  0  0
   21.0503   13.6840   23.9996 C   0  0  0  0  0  0  0  0  0  0  0  0
   19.9858   13.6270   24.3169 H   0  0  0  0  0  0  0  0  0  0  0  0
   21.3380   14.7575   23.9553 H   0  0  0  0  0  0  0  0  0  0  0  0
   21.6684   13.1842   24.7777 H   0  0  0  0  0  0  0  0  0  0  0  0
   23.2412   11.0654   20.8216 C   0  0  0  0  0  0  0  0  0  0  0  0
   28.7857   11.8341   19.7396 N   0  0  0  0  0  0  0  0  0  0  0  0
   22.7582    9.7294   20.7688 C   0  0  0  0  0  0  0  0  0  0  0  0
   21.7066    9.4963   20.8182 H   0  0  0  0  0  0  0  0  0  0  0  0
   23.6175    8.6394   20.6046 C   0  0  0  0  0  0  0  0  0  0  0  0
   23.2138    7.6383   20.5501 H   0  0  0  0  0  0  0  0  0  0  0  0
   24.9924    8.8400   20.4994 C   0  0  0  0  0  0  0  0  0  0  0  0
   25.6419    7.9863   20.3627 H   0  0  0  0  0  0  0  0  0  0  0  0
   25.5183   10.1376   20.5733 C   0  0  0  0  0  0  0  0  0  0  0  0
   24.6409   11.2246   20.7420 C   0  0  0  0  0  0  0  0  0  0  0  0
   25.0379   12.2301   20.7620 H   0  0  0  0  0  0  0  0  0  0  0  0
   26.9882   10.3964   20.4241 C   0  0  0  0  0  0  0  0  0  0  0  0
   27.4886   11.5378   19.7676 C   0  0  0  0  0  0  0  0  0  0  0  0
   26.8092   12.2450   19.3077 H   0  0  0  0  0  0  0  0  0  0  0  0
   29.6663   11.0206   20.3224 C   0  0  0  0  0  0  0  0  0  0  0  0
   30.7101   11.3022   20.2769 H   0  0  0  0  0  0  0  0  0  0  0  0
   27.9217    9.5250   21.0109 C   0  0  0  0  0  0  0  0  0  0  0  0
   27.5480    8.6400   21.4989 H   0  0  0  0  0  0  0  0  0  0  0  0
   29.2935    9.8329   20.9788 C   0  0  0  0  0  0  0  0  0  0  0  0
   21.5287   13.9886   18.9902 C   0  0  0  0  0  0  0  0  0  0  0  0
   21.8645   14.9115   18.5449 H   0  0  0  0  0  0  0  0  0  0  0  0
   20.5315   13.9663   19.3932 H   0  0  0  0  0  0  0  0  0  0  0  0
   22.6073   13.1448   19.6598 C   0  0  0  0  0  0  0  0  0  0  0  0
   23.5972   13.5785   19.6432 H   0  0  0  0  0  0  0  0  0  0  0  0
   22.0241   12.7074   18.3176 C   0  0  0  0  0  0  0  0  0  0  0  0
   21.3493   11.8685   18.3125 H   0  0  0  0  0  0  0  0  0  0  0  0
   22.6651   12.8393   17.4611 H   0  0  0  0  0  0  0  0  0  0  0  0
  1  2  1  0
  1 37  1  0
  2  3  1  0
  2  4  1  0
  2  5  1  0
  6  9  2  0
  6 10  1  0
  6 11  1  0
  7  8  1  0
  7 10  1  0
  7 12  1  0
 10 19  1  0
 10 41  1  6
 11 12  1  0
 11 15  1  0
 12 13  2  0
 13 14  1  0
 15 16  1  0
 15 17  1  0
 15 18  1  0
 19 21  2  0
 19 28  1  0
 20 31  2  0
 20 33  1  0
 21 22  1  0
 21 23  1  0
 23 24  1  0
 23 25  2  0
 25 26  1  0
 25 27  1  0
 27 28  2  0
 27 30  1  0
 28 29  1  0
 30 31  1  0
 30 35  2  0
 31 32  1  0
 33 34  1  0
 33 37  2  0
 35 36  1  0
 35 37  1  0
 38 39  1  0
 38 40  1  0
 38 41  1  0
 38 43  1  0
 41 42  1  0
 41 43  1  0
 43 44  1  0
 43 45  1  0
M  END
> <intraLJ>
29.914    

> <intraEL>
1.467     

> <intraDihe>
39.572    

> <interLJ>
0.000     

> <interEJ>
0.000     

> <gridLJ>
-3.230    

> <gridEL>
0.000     

> <totalE>
67.723    

> <LGFE>
-3.230  

> <LE>
-0.129  

> <SMILES>
[H]/N=C1/N[C@@](c2cccc(-c3cncc(OC)c3)c2)(C2CC2)C(=O)N1C

> <atom.dprop.GFE>
-0.1910 -0.4575 0.0000 0.0000 0.0000 -0.0649 0.2470 0.0000 -0.2930 0.0336 -0.0240 -0.0057 -0.3360 0.0000 -0.0470 0.0000 0.0000 0.0000 -0.0553 -0.9020 0.1154 0.0000 0.0897 0.0000 -0.0294 0.0000 -0.1085 -0.1288 0.0000 -0.0783 -0.1069 0.0000 -0.1455 0.0000 -0.1430 0.0000 -0.1550 -0.0896 0.0000 0.0000 -0.1325 0.0000 -0.2214 0.0000 0.0000

> <atom.prop.CLASS>
DMEO PRPC NCLA NCLA NCLA GEHC IMIH NCLA FORO PRPC GEHC GEHC GENA NCLA PRPC NCLA NCLA NCLA BENC IMIN BENC NCLA BENC NCLA BENC NCLA BENC BENC NCLA BENC GEHC NCLA GEHC NCLA BENC NCLA BENC PRPC NCLA NCLA PRPC NCLA PRPC NCLA NCLA

> <cluster_id>
1

> <rmsd_to_cluster_rep>
0.00    

> <ligRMSD>
2.59    

> <ligCOMD>
1.03    

$$$$
bace1_merck_40_17f_526
     RDKit          3D

 42 45  0  0  1  0  0  0  0  0999 V2000
   25.1072   12.1186   18.7414 C   0  0  0  0  0  0  0  0  0  0  0  0
   25.3310    9.8678   19.4813 N   0  0  0  0  0  0  0  0  0  0  0  0
   25.1186    9.4176   20.3675 H   0  0  0  0  0  0  0  0  0  0  0  0
   25.2105   13.3403   18.5915 O   0  0  0  0  0  0  0  0  0  0  0  0
   25.9543   11.2144   19.5944 C   0  0  2  0  0  0  0  0  0  0  0  0
   24.1995   11.2490   18.1689 N   0  0  0  0  0  0  0  0  0  0  0  0
   24.2728    9.9134   18.5492 C   0  0  0  0  0  0  0  0  0  0  0  0
   23.5650    8.7892   18.1703 N   0  0  0  0  0  0  0  0  0  0  0  0
   22.8699    9.0233   17.4920 H   0  0  0  0  0  0  0  0  0  0  0  0
   23.1791   11.7505   17.2788 C   0  0  0  0  0  0  0  0  0  0  0  0
   22.5113   10.9434   16.9045 H   0  0  0  0  0  0  0  0  0  0  0  0
   23.6515   12.2402   16.3990 H   0  0  0  0  0  0  0  0  0  0  0  0
   22.5493   12.5011   17.8054 H   0  0  0  0  0  0  0  0  0  0  0  0
   25.9365   11.6707   21.0397 C   0  0  0  0  0  0  0  0  0  0  0  0
   20.9073   12.8106   23.4488 N   0  0  0  0  0  0  0  0  0  0  0  0
   27.0910   12.1046   21.7474 C   0  0  0  0  0  0  0  0  0  0  0  0
   28.0757   12.0874   21.3084 H   0  0  0  0  0  0  0  0  0  0  0  0
   27.0110   12.6235   23.0421 C   0  0  0  0  0  0  0  0  0  0  0  0
   27.9063   12.9622   23.5439 H   0  0  0  0  0  0  0  0  0  0  0  0
   25.7778   12.7167   23.6830 C   0  0  0  0  0  0  0  0  0  0  0  0
   25.7326   13.1327   24.6802 H   0  0  0  0  0  0  0  0  0  0  0  0
   24.6146   12.2739   23.0349 C   0  0  0  0  0  0  0  0  0  0  0  0
   24.7108   11.7499   21.7347 C   0  0  0  0  0  0  0  0  0  0  0  0
   23.8121   11.4425   21.2183 H   0  0  0  0  0  0  0  0  0  0  0  0
   23.2659   12.4083   23.6748 C   0  0  0  0  0  0  0  0  0  0  0  0
   22.1331   12.7989   22.9312 C   0  0  0  0  0  0  0  0  0  0  0  0
   22.2291   13.0529   21.8825 H   0  0  0  0  0  0  0  0  0  0  0  0
   20.7178   12.4738   24.7231 C   0  0  0  0  0  0  0  0  0  0  0  0
   19.7035   12.4978   25.1003 H   0  0  0  0  0  0  0  0  0  0  0  0
   23.0687   12.0755   25.0287 C   0  0  0  0  0  0  0  0  0  0  0  0
   23.9030   11.7768   25.6498 H   0  0  0  0  0  0  0  0  0  0  0  0
   21.7778   12.1010   25.5656 C   0  0  0  0  0  0  0  0  0  0  0  0
   27.8662   10.1389   18.0744 C   0  0  0  0  0  0  0  0  0  0  0  0
   28.6680   10.4777   17.4379 H   0  0  0  0  0  0  0  0  0  0  0  0
   27.1520    9.4551   17.6505 H   0  0  0  0  0  0  0  0  0  0  0  0
   27.3922   11.1327   19.1280 C   0  0  0  0  0  0  0  0  0  0  0  0
   27.8932   12.0902   19.1054 H   0  0  0  0  0  0  0  0  0  0  0  0
   28.2295    9.9252   19.5447 C   0  0  0  0  0  0  0  0  0  0  0  0
   27.7309    9.1203   20.0572 H   0  0  0  0  0  0  0  0  0  0  0  0
   29.2521   10.1330   19.8150 H   0  0  0  0  0  0  0  0  0  0  0  0
   21.5649   11.7371   26.9339 C   0  0  0  0  0  0  0  0  0  0  0  0
   21.4067   11.4365   28.0629 N   0  0  0  0  0  0  0  0  0  0  0  0
  1  4  2  0
  1  5  1  0
  1  6  1  0
  2  3  1  0
  2  5  1  0
  2  7  1  0
  5 14  1  0
  5 36  1  6
  6  7  1  0
  6 10  1  0
  7  8  2  0
  8  9  1  0
 10 11  1  0
 10 12  1  0
 10 13  1  0
 14 16  2  0
 14 23  1  0
 15 26  2  0
 15 28  1  0
 16 17  1  0
 16 18  1  0
 18 19  1  0
 18 20  2  0
 20 21  1  0
 20 22  1  0
 22 23  2  0
 22 25  1  0
 23 24  1  0
 25 26  1  0
 25 30  2  0
 26 27  1  0
 28 29  1  0
 28 32  2  0
 30 31  1  0
 30 32  1  0
 32 41  1  0
 33 34  1  0
 33 35  1  0
 33 36  1  0
 33 38  1  0
 36 37  1  0
 36 38  1  0
 38 39  1  0
 38 40  1  0
 41 42  3  0
M  END
> <intraLJ>
26.402    

> <intraEL>
0.428     

> <intraDihe>
40.425    

> <interLJ>
0.000     

> <interEJ>
0.000     

> <gridLJ>
-4.274    

> <gridEL>
0.000     

> <totalE>
62.981    

> <LGFE>
-4.274  

> <LE>
-0.171  

> <SMILES>
[H]/N=C1/N[C@@](c2cccc(-c3cncc(C#N)c3)c2)(C2CC2)C(=O)N1C

> <atom.dprop.GFE>
-0.1515 -0.1310 0.0000 -0.7200 -0.4456 -0.2711 -0.2970 -0.9770 0.0000 -0.3913 0.0000 0.0000 0.0000 -0.1097 -0.0300 0.1121 0.0000 0.3215 0.0000 0.2774 0.0000 0.0332 0.0795 0.0000 0.0579 -0.0649 0.0000 0.1672 0.0000 0.2406 0.0000 0.1226 -0.6677 0.0000 0.0000 -0.5911 0.0000 -0.8382 0.0000 0.0000 0.0000 0.0000

> <atom.prop.CLASS>
GEHC IMIH NCLA FORO PRPC GEHC GEHC GENA NCLA PRPC NCLA NCLA NCLA BENC IMIN BENC NCLA BENC NCLA BENC NCLA BENC BENC NCLA BENC GEHC NCLA GEHC NCLA BENC NCLA BENC PRPC NCLA NCLA PRPC NCLA PRPC NCLA NCLA NCLA NCLA

> <cluster_id>
1

> <rmsd_to_cluster_rep>
0.00    

> <ligRMSD>
6.55    

> <ligCOMD>
1.01    

$$$$
bace1_merck_41_17g_13
     RDKit          3D

 41 44  0  0  1  0  0  0  0  0999 V2000
   29.5628    8.3810   22.0539 F   0  0  0  0  0  0  0  0  0  0  0  0
   22.7653   13.3382   20.1895 C   0  0  0  0  0  0  0  0  0  0  0  0
   22.2044   12.0918   22.1381 N   0  0  0  0  0  0  0  0  0  0  0  0
   22.6660   11.3198   22.6115 H   0  0  0  0  0  0  0  0  0  0  0  0
   23.0108   13.6986   19.0340 O   0  0  0  0  0  0  0  0  0  0  0  0
   22.2185   12.0155   20.6520 C   0  0  2  0  0  0  0  0  0  0  0  0
   22.9106   14.0455   21.3668 N   0  0  0  0  0  0  0  0  0  0  0  0
   22.5963   13.3837   22.5483 C   0  0  0  0  0  0  0  0  0  0  0  0
   22.5951   13.7790   23.8715 N   0  0  0  0  0  0  0  0  0  0  0  0
   22.8876   14.7306   23.9542 H   0  0  0  0  0  0  0  0  0  0  0  0
   23.4422   15.3880   21.3455 C   0  0  0  0  0  0  0  0  0  0  0  0
   23.5184   15.8288   22.3640 H   0  0  0  0  0  0  0  0  0  0  0  0
   22.7847   16.0458   20.7356 H   0  0  0  0  0  0  0  0  0  0  0  0
   24.4589   15.3880   20.8944 H   0  0  0  0  0  0  0  0  0  0  0  0
   23.1126   10.8781   20.2025 C   0  0  0  0  0  0  0  0  0  0  0  0
   28.8192   11.4829   20.3641 N   0  0  0  0  0  0  0  0  0  0  0  0
   22.6662    9.7894   19.4036 C   0  0  0  0  0  0  0  0  0  0  0  0
   21.6354    9.6753   19.1085 H   0  0  0  0  0  0  0  0  0  0  0  0
   23.5494    8.8250   18.9131 C   0  0  0  0  0  0  0  0  0  0  0  0
   23.1804    8.0213   18.2917 H   0  0  0  0  0  0  0  0  0  0  0  0
   24.9082    8.9054   19.2123 C   0  0  0  0  0  0  0  0  0  0  0  0
   25.5801    8.1583   18.8129 H   0  0  0  0  0  0  0  0  0  0  0  0
   25.3898    9.9449   20.0247 C   0  0  0  0  0  0  0  0  0  0  0  0
   24.4886   10.9035   20.5154 C   0  0  0  0  0  0  0  0  0  0  0  0
   24.8616   11.7245   21.1119 H   0  0  0  0  0  0  0  0  0  0  0  0
   26.8506   10.0936   20.3273 C   0  0  0  0  0  0  0  0  0  0  0  0
   27.5559   11.2698   20.0053 C   0  0  0  0  0  0  0  0  0  0  0  0
   27.0514   12.0766   19.4871 H   0  0  0  0  0  0  0  0  0  0  0  0
   29.4833   10.5424   21.0323 C   0  0  0  0  0  0  0  0  0  0  0  0
   30.5090   10.7520   21.3045 H   0  0  0  0  0  0  0  0  0  0  0  0
   27.5549    9.0909   21.0193 C   0  0  0  0  0  0  0  0  0  0  0  0
   27.0657    8.1684   21.2952 H   0  0  0  0  0  0  0  0  0  0  0  0
   28.8773    9.3304   21.3691 C   0  0  0  0  0  0  0  0  0  0  0  0
   19.5746   12.2700   20.8797 C   0  0  0  0  0  0  0  0  0  0  0  0
   18.7373   12.5208   20.2484 H   0  0  0  0  0  0  0  0  0  0  0  0
   19.7020   12.8401   21.7830 H   0  0  0  0  0  0  0  0  0  0  0  0
   20.8127   11.7498   20.1601 C   0  0  0  0  0  0  0  0  0  0  0  0
   20.7304   11.7166   19.0830 H   0  0  0  0  0  0  0  0  0  0  0  0
   19.9324   10.7845   20.9510 C   0  0  0  0  0  0  0  0  0  0  0  0
   20.3061   10.4181   21.8919 H   0  0  0  0  0  0  0  0  0  0  0  0
   19.3181   10.1207   20.3645 H   0  0  0  0  0  0  0  0  0  0  0  0
  1 33  1  0
  2  5  2  0
  2  6  1  0
  2  7  1  0
  3  4  1  0
  3  6  1  0
  3  8  1  0
  6 15  1  0
  6 37  1  6
  7  8  1  0
  7 11  1  0
  8  9  2  0
  9 10  1  0
 11 12  1  0
 11 13  1  0
 11 14  1  0
 15 17  2  0
 15 24  1  0
 16 27  2  0
 16 29  1  0
 17 18  1  0
 17 19  1  0
 19 20  1  0
 19 21  2  0
 21 22  1  0
 21 23  1  0
 23 24  2  0
 23 26  1  0
 24 25  1  0
 26 27  1  0
 26 31  2  0
 27 28  1  0
 29 30  1  0
 29 33  2  0
 31 32  1  0
 31 33  1  0
 34 35  1  0
 34 36  1  0
 34 37  1  0
 34 39  1  0
 37 38  1  0
 37 39  1  0
 39 40  1  0
 39 41  1  0
M  END
> <intraLJ>
24.647    

> <intraEL>
0.632     

> <intraDihe>
42.429    

> <interLJ>
0.000     

> <interEJ>
0.000     

> <gridLJ>
-3.344    

> <gridEL>
0.000     

> <totalE>
64.364    

> <LGFE>
-3.344  

> <LE>
-0.139  

> <SMILES>
[H]/N=C1/N[C@@](c2cccc(-c3cncc(F)c3)c2)(C2CC2)C(=O)N1C

> <atom.dprop.GFE>
-0.9270 0.0926 0.1400 0.0000 -0.5630 0.0336 -0.0017 -0.0649 0.0150 0.0000 0.0523 0.0000 0.0000 0.0000 -0.0553 -0.4750 -0.0489 0.0000 -0.1054 0.0000 -0.1869 0.0000 -0.2022 -0.1288 0.0000 -0.0783 -0.1069 0.0000 -0.1249 0.0000 -0.0974 0.0000 -0.0294 -0.1029 0.0000 0.0000 -0.1895 0.0000 -0.1895 0.0000 0.0000

> <atom.prop.CLASS>
FLBX GEHC IMIH NCLA FORO PRPC GEHC GEHC GENA NCLA PRPC NCLA NCLA NCLA BENC IMIN BENC NCLA BENC NCLA BENC NCLA BENC BENC NCLA BENC GEHC NCLA GEHC NCLA BENC NCLA BENC PRPC NCLA NCLA PRPC NCLA PRPC NCLA NCLA

> <cluster_id>
1

> <rmsd_to_cluster_rep>
0.00    

> <ligRMSD>
2.37    

> <ligCOMD>
1.11    

$$$$
bace1_merck_42_17h_4djx_159
     RDKit          3D

 41 44  0  0  1  0  0  0  0  0999 V2000
   29.4561    7.7871   22.2900 Cl  0  0  0  0  0  0  0  0  0  0  0  0
   22.8304   13.2736   20.1592 C   0  0  0  0  0  0  0  0  0  0  0  0
   22.2190   12.0319   22.0980 N   0  0  0  0  0  0  0  0  0  0  0  0
   22.6378   11.2177   22.5400 H   0  0  0  0  0  0  0  0  0  0  0  0
   23.0460   13.6462   19.0035 O   0  0  0  0  0  0  0  0  0  0  0  0
   22.1992   11.9945   20.6122 C   0  0  2  0  0  0  0  0  0  0  0  0
   23.0634   13.9418   21.3418 N   0  0  0  0  0  0  0  0  0  0  0  0
   22.7348   13.2787   22.5165 C   0  0  0  0  0  0  0  0  0  0  0  0
   22.8101   13.6597   23.8381 N   0  0  0  0  0  0  0  0  0  0  0  0
   23.1795   14.5848   23.9133 H   0  0  0  0  0  0  0  0  0  0  0  0
   23.6362   15.2677   21.3326 C   0  0  0  0  0  0  0  0  0  0  0  0
   23.7719   15.6791   22.3572 H   0  0  0  0  0  0  0  0  0  0  0  0
   22.9752   15.9626   20.7693 H   0  0  0  0  0  0  0  0  0  0  0  0
   24.6318   15.2475   20.8373 H   0  0  0  0  0  0  0  0  0  0  0  0
   23.0255   10.8072   20.1329 C   0  0  0  0  0  0  0  0  0  0  0  0
   28.8396   10.9817   19.9876 N   0  0  0  0  0  0  0  0  0  0  0  0
   20.7548   11.9289   20.1432 C   0  0  0  0  0  0  0  0  0  0  0  0
   20.6521   11.9863   19.0690 H   0  0  0  0  0  0  0  0  0  0  0  0
   22.5122    9.7832   19.2967 C   0  0  0  0  0  0  0  0  0  0  0  0
   21.4654    9.7444   19.0390 H   0  0  0  0  0  0  0  0  0  0  0  0
   23.3391    8.7970   18.7435 C   0  0  0  0  0  0  0  0  0  0  0  0
   22.9171    8.0417   18.0960 H   0  0  0  0  0  0  0  0  0  0  0  0
   24.7075    8.7899   19.0161 C   0  0  0  0  0  0  0  0  0  0  0  0
   25.3294    8.0264   18.5693 H   0  0  0  0  0  0  0  0  0  0  0  0
   25.2616    9.7634   19.8614 C   0  0  0  0  0  0  0  0  0  0  0  0
   24.4140   10.7425   20.4162 C   0  0  0  0  0  0  0  0  0  0  0  0
   24.8418   11.5136   21.0412 H   0  0  0  0  0  0  0  0  0  0  0  0
   26.7392    9.8115   20.1313 C   0  0  0  0  0  0  0  0  0  0  0  0
   27.5553   10.8611   19.6548 C   0  0  0  0  0  0  0  0  0  0  0  0
   27.1313   11.6430   19.0366 H   0  0  0  0  0  0  0  0  0  0  0  0
   29.4102   10.0732   20.7765 C   0  0  0  0  0  0  0  0  0  0  0  0
   30.4550   10.2052   21.0245 H   0  0  0  0  0  0  0  0  0  0  0  0
   27.3528    8.8388   20.9402 C   0  0  0  0  0  0  0  0  0  0  0  0
   26.7818    8.0097   21.3326 H   0  0  0  0  0  0  0  0  0  0  0  0
   19.7002   11.1128   20.8865 C   0  0  0  0  0  0  0  0  0  0  0  0
   18.9547   10.6341   20.2721 H   0  0  0  0  0  0  0  0  0  0  0  0
   19.9884   10.6188   21.7981 H   0  0  0  0  0  0  0  0  0  0  0  0
   19.6478   12.6421   20.9200 C   0  0  0  0  0  0  0  0  0  0  0  0
   19.8961   13.1105   21.8561 H   0  0  0  0  0  0  0  0  0  0  0  0
   18.8769   13.1017   20.3229 H   0  0  0  0  0  0  0  0  0  0  0  0
   28.7014    8.9682   21.2717 C   0  0  0  0  0  0  0  0  0  0  0  0
  1 41  1  0
  2  5  2  0
  2  6  1  0
  2  7  1  0
  3  4  1  0
  3  6  1  0
  3  8  1  0
  6 15  1  0
  6 17  1  1
  7  8  1  0
  7 11  1  0
  8  9  2  0
  9 10  1  0
 11 12  1  0
 11 13  1  0
 11 14  1  0
 15 19  2  0
 15 26  1  0
 16 29  2  0
 16 31  1  0
 17 18  1  0
 17 35  1  0
 17 38  1  0
 19 20  1  0
 19 21  1  0
 21 22  1  0
 21 23  2  0
 23 24  1  0
 23 25  1  0
 25 26  2  0
 25 28  1  0
 26 27  1  0
 28 29  1  0
 28 33  2  0
 29 30  1  0
 31 32  1  0
 31 41  2  0
 33 34  1  0
 33 41  1  0
 35 36  1  0
 35 37  1  0
 35 38  1  0
 38 39  1  0
 38 40  1  0
M  END
> <intraLJ>
23.306    

> <intraEL>
0.433     

> <intraDihe>
43.745    

> <interLJ>
0.000     

> <interEJ>
0.000     

> <gridLJ>
-4.421    

> <gridEL>
0.000     

> <totalE>
63.063    

> <LGFE>
-4.421  

> <LE>
-0.184  

> <SMILES>
[H]/N=C1/N[C@@](c2cccc(-c3cncc(Cl)c3)c2)(C2CC2)C(=O)N1C

> <atom.dprop.GFE>
-1.8640 0.0926 0.1400 0.0000 -0.5630 0.0336 -0.0017 -0.0649 0.0150 0.0000 0.0523 0.0000 0.0000 0.0000 -0.0553 -0.7860 -0.1056 0.0000 -0.0489 0.0000 -0.1054 0.0000 -0.1787 0.0000 -0.1869 -0.1024 0.0000 -0.0720 -0.1069 0.0000 -0.1249 0.0000 -0.0974 0.0000 -0.2248 0.0000 0.0000 -0.1029 0.0000 0.0000 0.0371

> <atom.prop.CLASS>
CLBX GEHC IMIH NCLA FORO PRPC GEHC GEHC GENA NCLA PRPC NCLA NCLA NCLA BENC IMIN PRPC NCLA BENC NCLA BENC NCLA BENC NCLA BENC BENC NCLA BENC GEHC NCLA GEHC NCLA BENC NCLA PRPC NCLA NCLA PRPC NCLA NCLA BENC

> <cluster_id>
1

> <rmsd_to_cluster_rep>
0.00    

> <ligRMSD>
2.41    

> <ligCOMD>
1.14    

$$$$
bace1_merck_43_17i_622
     RDKit          3D

 44 47  0  0  1  0  0  0  0  0999 V2000
   21.4636   13.3725   26.7222 C   0  0  0  0  0  0  0  0  0  0  0  0
   20.4050   13.6553   26.9071 H   0  0  0  0  0  0  0  0  0  0  0  0
   22.1379   14.1049   27.2160 H   0  0  0  0  0  0  0  0  0  0  0  0
   21.6538   12.3541   27.1245 H   0  0  0  0  0  0  0  0  0  0  0  0
   25.2229   11.7277   18.6433 C   0  0  0  0  0  0  0  0  0  0  0  0
   24.8497    9.6064   19.6559 N   0  0  0  0  0  0  0  0  0  0  0  0
   24.4946    9.3408   20.5705 H   0  0  0  0  0  0  0  0  0  0  0  0
   25.6338   12.8569   18.3574 O   0  0  0  0  0  0  0  0  0  0  0  0
   25.7812   10.7671   19.6572 C   0  0  2  0  0  0  0  0  0  0  0  0
   24.1533   11.0345   18.1112 N   0  0  0  0  0  0  0  0  0  0  0  0
   23.8765    9.7828   18.6495 C   0  0  0  0  0  0  0  0  0  0  0  0
   22.9285    8.8230   18.3528 N   0  0  0  0  0  0  0  0  0  0  0  0
   22.3435    9.1271   17.6023 H   0  0  0  0  0  0  0  0  0  0  0  0
   23.3283   11.6443   17.0949 C   0  0  0  0  0  0  0  0  0  0  0  0
   22.4974   10.9798   16.7704 H   0  0  0  0  0  0  0  0  0  0  0  0
   23.9447   11.8843   16.2008 H   0  0  0  0  0  0  0  0  0  0  0  0
   22.8830   12.5876   17.4811 H   0  0  0  0  0  0  0  0  0  0  0  0
   25.8145   11.4000   21.0336 C   0  0  0  0  0  0  0  0  0  0  0  0
   21.0100   13.6976   22.9868 N   0  0  0  0  0  0  0  0  0  0  0  0
   27.0120   11.6784   21.7482 C   0  0  0  0  0  0  0  0  0  0  0  0
   27.9846   11.4048   21.3715 H   0  0  0  0  0  0  0  0  0  0  0  0
   27.0021   12.3670   22.9636 C   0  0  0  0  0  0  0  0  0  0  0  0
   27.9323   12.5797   23.4710 H   0  0  0  0  0  0  0  0  0  0  0  0
   25.7957   12.7912   23.5166 C   0  0  0  0  0  0  0  0  0  0  0  0
   25.8073   13.3342   24.4517 H   0  0  0  0  0  0  0  0  0  0  0  0
   24.5852   12.5121   22.8622 C   0  0  0  0  0  0  0  0  0  0  0  0
   24.6111   11.8152   21.6429 C   0  0  0  0  0  0  0  0  0  0  0  0
   23.6842   11.6315   21.1177 H   0  0  0  0  0  0  0  0  0  0  0  0
   23.2728   12.9983   23.4014 C   0  0  0  0  0  0  0  0  0  0  0  0
   22.2215   13.3757   22.5413 C   0  0  0  0  0  0  0  0  0  0  0  0
   22.3640   13.3608   21.4675 H   0  0  0  0  0  0  0  0  0  0  0  0
   20.7631   13.6999   24.2956 C   0  0  0  0  0  0  0  0  0  0  0  0
   19.7647   13.9681   24.6149 H   0  0  0  0  0  0  0  0  0  0  0  0
   23.0139   13.0232   24.7866 C   0  0  0  0  0  0  0  0  0  0  0  0
   23.7777   12.7514   25.5021 H   0  0  0  0  0  0  0  0  0  0  0  0
   21.7421   13.3732   25.2528 C   0  0  0  0  0  0  0  0  0  0  0  0
   27.4300    9.0730   18.4211 C   0  0  0  0  0  0  0  0  0  0  0  0
   28.3175    9.1219   17.8106 H   0  0  0  0  0  0  0  0  0  0  0  0
   26.5877    8.5313   18.0285 H   0  0  0  0  0  0  0  0  0  0  0  0
   27.1727   10.2819   19.3125 C   0  0  0  0  0  0  0  0  0  0  0  0
   27.8959   11.0791   19.2146 H   0  0  0  0  0  0  0  0  0  0  0  0
   27.6651    8.9744   19.9293 C   0  0  0  0  0  0  0  0  0  0  0  0
   26.9607    8.3882   20.4945 H   0  0  0  0  0  0  0  0  0  0  0  0
   28.6946    8.9637   20.2486 H   0  0  0  0  0  0  0  0  0  0  0  0
  1  2  1  0
  1  3  1  0
  1  4  1  0
  1 36  1  0
  5  8  2  0
  5  9  1  0
  5 10  1  0
  6  7  1  0
  6  9  1  0
  6 11  1  0
  9 18  1  0
  9 40  1  6
 10 11  1  0
 10 14  1  0
 11 12  2  0
 12 13  1  0
 14 15  1  0
 14 16  1  0
 14 17  1  0
 18 20  2  0
 18 27  1  0
 19 30  2  0
 19 32  1  0
 20 21  1  0
 20 22  1  0
 22 23  1  0
 22 24  2  0
 24 25  1  0
 24 26  1  0
 26 27  2  0
 26 29  1  0
 27 28  1  0
 29 30  1  0
 29 34  2  0
 30 31  1  0
 32 33  1  0
 32 36  2  0
 34 35  1  0
 34 36  1  0
 37 38  1  0
 37 39  1  0
 37 40  1  0
 37 42  1  0
 40 41  1  0
 40 42  1  0
 42 43  1  0
 42 44  1  0
M  END
> <intraLJ>
27.570    

> <intraEL>
0.655     

> <intraDihe>
39.729    

> <interLJ>
0.000     

> <interEJ>
0.000     

> <gridLJ>
-5.141    

> <gridEL>
0.000     

> <totalE>
62.812    

> <LGFE>
-5.141  

> <LE>
-0.214  

> <SMILES>
[H]/N=C1/N[C@@](c2cccc(-c3cncc(C)c3)c2)(C2CC2)C(=O)N1C

> <atom.dprop.GFE>
0.0390 0.0000 0.0000 0.0000 -0.2251 -0.2930 0.0000 -0.7200 -0.4496 -0.2711 -0.2970 -0.9770 0.0000 -0.3913 0.0000 0.0000 0.0000 -0.1364 -0.3500 0.0579 0.0000 0.3215 0.0000 0.1284 0.0000 0.0332 0.0341 0.0000 0.0167 -0.0649 0.0000 -0.0456 0.0000 0.0980 0.0000 0.1010 -0.3526 0.0000 0.0000 -0.7542 0.0000 -0.6430 0.0000 0.0000

> <atom.prop.CLASS>
PRPC NCLA NCLA NCLA GEHC IMIH NCLA FORO PRPC GEHC GEHC GENA NCLA PRPC NCLA NCLA NCLA BENC IMIN BENC NCLA BENC NCLA BENC NCLA BENC BENC NCLA BENC GEHC NCLA GEHC NCLA BENC NCLA BENC PRPC NCLA NCLA PRPC NCLA PRPC NCLA NCLA

> <cluster_id>
1

> <rmsd_to_cluster_rep>
0.00    

> <ligRMSD>
6.34    

> <ligCOMD>
1.03    

$$$$
bace1_merck_44_19_1195
     RDKit          3D

 41 44  0  0  1  0  0  0  0  0999 V2000
   22.2695   12.1340   20.8585 C   0  0  2  0  0  0  0  0  0  0  0  0
   22.4883   12.2702   22.3235 N   0  0  0  0  0  0  0  0  0  0  0  0
   22.9630   11.4836   22.7589 H   0  0  0  0  0  0  0  0  0  0  0  0
   22.8844   13.6761   19.0487 O   0  0  0  0  0  0  0  0  0  0  0  0
   23.0602   13.5379   22.5850 C   0  0  0  0  0  0  0  0  0  0  0  0
   23.2318   14.1175   21.3352 N   0  0  0  0  0  0  0  0  0  0  0  0
   22.8302   13.3790   20.2441 C   0  0  0  0  0  0  0  0  0  0  0  0
   23.3129   14.0114   23.8541 N   0  0  0  0  0  0  0  0  0  0  0  0
   23.6906   14.9354   23.8121 H   0  0  0  0  0  0  0  0  0  0  0  0
   20.7753   12.0317   20.5777 C   0  0  0  0  0  0  0  0  0  0  0  0
   20.5482   12.0331   19.5208 H   0  0  0  0  0  0  0  0  0  0  0  0
   23.0393   10.9220   20.3464 C   0  0  0  0  0  0  0  0  0  0  0  0
   28.8306   10.8502   19.4991 N   0  0  0  0  0  0  0  0  0  0  0  0
   24.4486   10.8378   20.5045 C   0  0  0  0  0  0  0  0  0  0  0  0
   24.9491   11.6231   21.0529 H   0  0  0  0  0  0  0  0  0  0  0  0
   25.2206    9.8123   19.9237 C   0  0  0  0  0  0  0  0  0  0  0  0
   24.5682    8.8110   19.1856 C   0  0  0  0  0  0  0  0  0  0  0  0
   25.1287    8.0075   18.7273 H   0  0  0  0  0  0  0  0  0  0  0  0
   23.1835    8.8492   19.0224 C   0  0  0  0  0  0  0  0  0  0  0  0
   22.6888    8.0787   18.4484 H   0  0  0  0  0  0  0  0  0  0  0  0
   22.4335    9.8833   19.5940 C   0  0  0  0  0  0  0  0  0  0  0  0
   21.3685    9.8600   19.4246 H   0  0  0  0  0  0  0  0  0  0  0  0
   23.8012   15.4333   21.1530 C   0  0  0  0  0  0  0  0  0  0  0  0
   24.0938   15.9060   22.1164 H   0  0  0  0  0  0  0  0  0  0  0  0
   23.0637   16.0998   20.6539 H   0  0  0  0  0  0  0  0  0  0  0  0
   24.7091   15.3698   20.5135 H   0  0  0  0  0  0  0  0  0  0  0  0
   19.7556   12.7805   21.4357 C   0  0  0  0  0  0  0  0  0  0  0  0
   20.1061   13.2943   22.3137 H   0  0  0  0  0  0  0  0  0  0  0  0
   18.9211   13.2100   20.9051 H   0  0  0  0  0  0  0  0  0  0  0  0
   19.8133   11.2518   21.4726 C   0  0  0  0  0  0  0  0  0  0  0  0
   19.0072   10.7423   20.9694 H   0  0  0  0  0  0  0  0  0  0  0  0
   20.2097   10.8055   22.3683 H   0  0  0  0  0  0  0  0  0  0  0  0
   26.7195    9.8284   20.0497 C   0  0  0  0  0  0  0  0  0  0  0  0
   27.3941    8.9232   20.8924 C   0  0  0  0  0  0  0  0  0  0  0  0
   26.8444    8.1751   21.4447 H   0  0  0  0  0  0  0  0  0  0  0  0
   28.7851    8.9982   21.0214 C   0  0  0  0  0  0  0  0  0  0  0  0
   29.6343    7.8901   22.0563 Cl  0  0  0  0  0  0  0  0  0  0  0  0
   29.4639    9.9917   20.2969 C   0  0  0  0  0  0  0  0  0  0  0  0
   30.5393   10.0810   20.3767 H   0  0  0  0  0  0  0  0  0  0  0  0
   27.5080   10.7786   19.3647 C   0  0  0  0  0  0  0  0  0  0  0  0
   27.0390   11.5075   18.7148 H   0  0  0  0  0  0  0  0  0  0  0  0
  1  2  1  0
  1  7  1  0
  1 10  1  1
  1 12  1  0
  2  3  1  0
  2  5  1  0
  4  7  2  0
  5  6  1  0
  5  8  2  0
  6  7  1  0
  6 23  1  0
  8  9  1  0
 10 11  1  0
 10 27  1  0
 10 30  1  0
 12 14  2  0
 12 21  1  0
 13 38  2  0
 13 40  1  0
 14 15  1  0
 14 16  1  0
 16 17  2  0
 16 33  1  0
 17 18  1  0
 17 19  1  0
 19 20  1  0
 19 21  2  0
 21 22  1  0
 23 24  1  0
 23 25  1  0
 23 26  1  0
 27 28  1  0
 27 29  1  0
 27 30  1  0
 30 31  1  0
 30 32  1  0
 33 34  1  0
 33 40  2  0
 34 35  1  0
 34 36  2  0
 36 37  1  0
 36 38  1  0
 38 39  1  0
 40 41  1  0
M  END
> <intraLJ>
22.671    

> <intraEL>
0.412     

> <intraDihe>
43.788    

> <interLJ>
0.000     

> <interEJ>
0.000     

> <gridLJ>
-4.577    

> <gridEL>
0.000     

> <totalE>
62.295    

> <LGFE>
-4.577  

> <LE>
-0.191  

> <SMILES>
[H]/N=C1/N[C@@](c2cccc(-c3cncc(Cl)c3)c2)(C2CC2)C(=O)N1C

> <atom.dprop.GFE>
0.0336 0.1400 0.0000 -0.5630 -0.0619 -0.0017 0.0926 0.0780 0.0000 -0.1056 0.0000 -0.0553 -0.7860 -0.1288 0.0000 -0.2022 -0.1568 0.0000 -0.1054 0.0000 -0.0489 0.0000 0.0523 0.0000 0.0000 0.0000 -0.1016 0.0000 0.0000 -0.0666 0.0000 0.0000 -0.2256 -0.0974 0.0000 -0.1430 -1.8640 -0.1249 0.0000 -0.1349 0.0000

> <atom.prop.CLASS>
PRPC IMIH NCLA FORO GEHC GEHC GEHC GENA NCLA PRPC NCLA BENC IMIN BENC NCLA BENC BENC NCLA BENC NCLA BENC NCLA PRPC NCLA NCLA NCLA PRPC NCLA NCLA PRPC NCLA NCLA BENC BENC NCLA BENC CLBX GEHC NCLA GEHC NCLA

> <cluster_id>
1

> <rmsd_to_cluster_rep>
0.00    

> <ligRMSD>
2.54    

> <ligCOMD>
1.07    

$$$$
bace1_merck_45_24_4dj7_365
     RDKit          3D

 46 49  0  0  1  0  0  0  0  0999 V2000
   21.8379   11.6293   20.6574 C   0  0  2  0  0  0  0  0  0  0  0  0
   21.8612   11.8019   22.1348 N   0  0  0  0  0  0  0  0  0  0  0  0
   22.4262   11.1204   22.6348 H   0  0  0  0  0  0  0  0  0  0  0  0
   22.3494   13.2632   18.8966 O   0  0  0  0  0  0  0  0  0  0  0  0
   22.1469   13.1549   22.4339 C   0  0  0  0  0  0  0  0  0  0  0  0
   22.3446   13.7589   21.1993 N   0  0  0  0  0  0  0  0  0  0  0  0
   22.2172   12.9595   20.0844 C   0  0  0  0  0  0  0  0  0  0  0  0
   22.1601   13.6638   23.7150 N   0  0  0  0  0  0  0  0  0  0  0  0
   22.3572   14.6432   23.6989 H   0  0  0  0  0  0  0  0  0  0  0  0
   20.4324   11.2424   20.2147 C   0  0  0  0  0  0  0  0  0  0  0  0
   20.3286   11.2053   19.1393 H   0  0  0  0  0  0  0  0  0  0  0  0
   22.8760   10.5873   20.2575 C   0  0  0  0  0  0  0  0  0  0  0  0
   28.5117   11.8867   20.0504 N   0  0  0  0  0  0  0  0  0  0  0  0
   24.2574   10.8132   20.4960 C   0  0  0  0  0  0  0  0  0  0  0  0
   24.5429   11.7124   21.0230 H   0  0  0  0  0  0  0  0  0  0  0  0
   25.2645    9.9507   20.0187 C   0  0  0  0  0  0  0  0  0  0  0  0
   24.8886    8.8018   19.3049 C   0  0  0  0  0  0  0  0  0  0  0  0
   25.6348    8.1170   18.9253 H   0  0  0  0  0  0  0  0  0  0  0  0
   23.5409    8.5367   19.0640 C   0  0  0  0  0  0  0  0  0  0  0  0
   23.2582    7.6538   18.5087 H   0  0  0  0  0  0  0  0  0  0  0  0
   22.5538    9.4108   19.5340 C   0  0  0  0  0  0  0  0  0  0  0  0
   21.5311    9.1528   19.3081 H   0  0  0  0  0  0  0  0  0  0  0  0
   22.6698   15.1593   21.0548 C   0  0  0  0  0  0  0  0  0  0  0  0
   22.7563   15.6777   22.0351 H   0  0  0  0  0  0  0  0  0  0  0  0
   21.8800   15.6729   20.4636 H   0  0  0  0  0  0  0  0  0  0  0  0
   23.6395   15.2717   20.5216 H   0  0  0  0  0  0  0  0  0  0  0  0
   19.1989   11.7760   20.9427 C   0  0  0  0  0  0  0  0  0  0  0  0
   19.3442   12.3434   21.8452 H   0  0  0  0  0  0  0  0  0  0  0  0
   18.3617   12.0391   20.3164 H   0  0  0  0  0  0  0  0  0  0  0  0
   19.5451   10.2870   21.0110 C   0  0  0  0  0  0  0  0  0  0  0  0
   18.9131    9.6340   20.4306 H   0  0  0  0  0  0  0  0  0  0  0  0
   19.9178    9.9211   21.9521 H   0  0  0  0  0  0  0  0  0  0  0  0
   26.7147   10.2901   20.2277 C   0  0  0  0  0  0  0  0  0  0  0  0
   27.5922    9.3925   20.8669 C   0  0  0  0  0  0  0  0  0  0  0  0
   27.2484    8.4196   21.1913 H   0  0  0  0  0  0  0  0  0  0  0  0
   28.9224    9.7653   21.0875 C   0  0  0  0  0  0  0  0  0  0  0  0
   29.3361   11.0365   20.6581 C   0  0  0  0  0  0  0  0  0  0  0  0
   30.3578   11.3568   20.8165 H   0  0  0  0  0  0  0  0  0  0  0  0
   27.2461   11.5373   19.8302 C   0  0  0  0  0  0  0  0  0  0  0  0
   26.6113   12.2689   19.3453 H   0  0  0  0  0  0  0  0  0  0  0  0
   29.8302    8.8706   21.7359 C   0  0  0  0  0  0  0  0  0  0  0  0
   30.5941    8.1359   22.3364 C   0  0  0  0  0  0  0  0  0  0  0  0
   31.4730    7.2360   23.0815 C   0  0  0  0  0  0  0  0  0  0  0  0
   32.5411    7.4503   22.8638 H   0  0  0  0  0  0  0  0  0  0  0  0
   31.2751    6.1759   22.8139 H   0  0  0  0  0  0  0  0  0  0  0  0
   31.3180    7.3462   24.1762 H   0  0  0  0  0  0  0  0  0  0  0  0
  1  2  1  0
  1  7  1  0
  1 10  1  6
  1 12  1  0
  2  3  1  0
  2  5  1  0
  4  7  2  0
  5  6  1  0
  5  8  2  0
  6  7  1  0
  6 23  1  0
  8  9  1  0
 10 11  1  0
 10 27  1  0
 10 30  1  0
 12 14  2  0
 12 21  1  0
 13 37  2  0
 13 39  1  0
 14 15  1  0
 14 16  1  0
 16 17  2  0
 16 33  1  0
 17 18  1  0
 17 19  1  0
 19 20  1  0
 19 21  2  0
 21 22  1  0
 23 24  1  0
 23 25  1  0
 23 26  1  0
 27 28  1  0
 27 29  1  0
 27 30  1  0
 30 31  1  0
 30 32  1  0
 33 34  1  0
 33 39  2  0
 34 35  1  0
 34 36  2  0
 36 37  1  0
 36 41  1  0
 37 38  1  0
 39 40  1  0
 41 42  3  0
 42 43  1  0
 43 44  1  0
 43 45  1  0
 43 46  1  0
M  END
> <intraLJ>
23.099    

> <intraEL>
0.277     

> <intraDihe>
42.152    

> <interLJ>
0.000     

> <interEJ>
0.000     

> <gridLJ>
-3.248    

> <gridEL>
0.000     

> <totalE>
62.280    

> <LGFE>
-3.248  

> <LE>
-0.125  

> <SMILES>
[H]/N=C1/N[C@@](c2cccc(-c3cncc(C#CC)c3)c2)(C2CC2)C(=O)N1C

> <atom.dprop.GFE>
-0.0057 0.1400 0.0000 -0.2170 -0.0649 -0.0293 0.0926 0.0150 0.0000 -0.1895 0.0000 -0.0245 -0.9020 -0.1288 0.0000 -0.2022 -0.1869 0.0000 0.0117 0.0000 -0.0080 0.0000 0.0669 0.0000 0.0000 0.0000 -0.2248 0.0000 0.0000 -0.2594 0.0000 0.0000 -0.0720 -0.0974 0.0000 -0.0294 -0.1455 0.0000 -0.1069 0.0000 -0.6777 -0.1212 0.1185 0.0000 0.0000 0.0000

> <atom.prop.CLASS>
PRPC IMIH NCLA FORO GEHC GEHC GEHC GENA NCLA PRPC NCLA BENC IMIN BENC NCLA BENC BENC NCLA BENC NCLA BENC NCLA PRPC NCLA NCLA NCLA PRPC NCLA NCLA PRPC NCLA NCLA BENC BENC NCLA BENC GEHC NCLA GEHC NCLA PRPC PRPC PRPC NCLA NCLA NCLA

> <cluster_id>
1

> <rmsd_to_cluster_rep>
0.00    

> <ligRMSD>
2.31    

> <ligCOMD>
1.04    

$$$$
