thrombin_baum_01_1a_1zdv.H
  MOE2024           3D
thrombin_baum_01_1a_1zdv
 52 54  0  0  1  0  0  0  0  0999 V2000
   12.6690  -11.4860   21.5370 C   0  0  0  0  0  0  0  0  0  0  0  0
   12.7155  -12.3250   20.8586 H   0  0  0  0  0  0  0  0  0  0  0  0
   13.5600  -10.4150   21.3790 C   0  0  0  0  0  0  0  0  0  0  0  0
   14.5810  -10.4600   20.2430 C   0  0  0  0  0  0  0  0  0  0  0  0
   14.5553   -9.5255   19.6825 H   0  0  0  0  0  0  0  0  0  0  0  0
   14.3570  -11.2911   19.5742 H   0  0  0  0  0  0  0  0  0  0  0  0
   16.5910  -11.7710   20.5870 C   0  0  0  0  0  0  0  0  0  0  0  0
   18.0270  -11.8630   21.0590 C   0  0  3  0  0  0  0  0  0  0  0  0
   18.1477  -11.0264   21.7472 H   0  0  0  0  0  0  0  0  0  0  0  0
   17.5180  -13.7090   22.6160 C   0  0  0  0  0  0  0  0  0  0  0  0
   17.6800  -15.0690   23.2530 C   0  0  3  0  0  0  0  0  0  0  0  0
   18.4787  -15.5934   22.7283 H   0  0  0  0  0  0  0  0  0  0  0  0
   18.1350  -14.9750   24.7300 C   0  0  0  0  0  0  0  0  0  0  0  0
   18.1127  -15.9670   25.1813 H   0  0  0  0  0  0  0  0  0  0  0  0
   17.4635  -14.3123   25.2759 H   0  0  0  0  0  0  0  0  0  0  0  0
   19.5710  -14.4150   24.7890 C   0  0  0  0  0  0  0  0  0  0  0  0
   15.9000  -10.6450   20.8440 N   0  0  0  0  0  0  0  0  0  0  0  0
   16.2896   -9.9344   21.4468 H   0  0  0  0  0  0  0  0  0  0  0  0
   20.6360  -15.0350   24.1300 C   0  0  0  0  0  0  0  0  0  0  0  0
   20.4662  -15.9353   23.5581 H   0  0  0  0  0  0  0  0  0  0  0  0
   21.9270  -14.4880   24.2110 C   0  0  0  0  0  0  0  0  0  0  0  0
   22.7434  -14.9736   23.6971 H   0  0  0  0  0  0  0  0  0  0  0  0
   22.1700  -13.3320   24.9420 C   0  0  0  0  0  0  0  0  0  0  0  0
   23.1684  -12.9236   24.9957 H   0  0  0  0  0  0  0  0  0  0  0  0
   21.1090  -12.6960   25.6120 C   0  0  0  0  0  0  0  0  0  0  0  0
   21.2819  -11.7969   26.1848 H   0  0  0  0  0  0  0  0  0  0  0  0
   19.8250  -13.2480   25.5240 C   0  0  0  0  0  0  0  0  0  0  0  0
   19.0080  -12.7616   26.0362 H   0  0  0  0  0  0  0  0  0  0  0  0
   19.2710  -13.9990   20.9150 C   0  0  0  0  0  0  0  0  0  0  0  0
   18.7778  -14.6306   20.1761 H   0  0  0  0  0  0  0  0  0  0  0  0
   19.8783  -14.6183   21.5750 H   0  0  0  0  0  0  0  0  0  0  0  0
   18.3160  -13.1690   21.6590 N   0  0  0  0  0  0  0  0  0  0  0  0
   20.0910  -12.8710   20.2600 C   0  0  0  0  0  0  0  0  0  0  0  0
   20.6325  -13.2354   19.3870 H   0  0  0  0  0  0  0  0  0  0  0  0
   20.7954  -12.4354   20.9687 H   0  0  0  0  0  0  0  0  0  0  0  0
   19.0090  -11.8520   19.8560 C   0  0  0  0  0  0  0  0  0  0  0  0
   19.4410  -10.8611   19.7157 H   0  0  0  0  0  0  0  0  0  0  0  0
   18.5056  -12.1618   18.9402 H   0  0  0  0  0  0  0  0  0  0  0  0
   13.4780   -9.3430   22.2670 C   0  0  0  0  0  0  0  0  0  0  0  0
   14.1585   -8.5118   22.1553 H   0  0  0  0  0  0  0  0  0  0  0  0
   12.5390   -9.3200   23.2940 C   0  0  0  0  0  0  0  0  0  0  0  0
   11.6590  -10.3950   23.4400 C   0  0  0  0  0  0  0  0  0  0  0  0
   10.9265  -10.3897   24.2336 H   0  0  0  0  0  0  0  0  0  0  0  0
   11.7270  -11.4780   22.5580 C   0  0  0  0  0  0  0  0  0  0  0  0
   11.0465  -12.3090   22.6707 H   0  0  0  0  0  0  0  0  0  0  0  0
   16.4240  -15.8630   23.1000 N   0  3  0  0  0  0  0  0  0  0  0  0
   15.6689  -15.3943   23.5797 H   0  0  0  0  0  0  0  0  0  0  0  0
   16.5562  -16.7821   23.4973 H   0  0  0  0  0  0  0  0  0  0  0  0
   16.1977  -15.9495   22.1195 H   0  0  0  0  0  0  0  0  0  0  0  0
   16.1160  -12.7330   19.9940 O   0  0  0  0  0  0  0  0  0  0  0  0
   16.5480  -13.0580   23.0520 O   0  0  0  0  0  0  0  0  0  0  0  0
   12.4640   -8.2830   24.1490 F   0  0  0  0  0  0  0  0  0  0  0  0
  1  2  1  0  0  0  0
  1  3  1  0  0  0  0
  1 44  2  0  0  0  0
  3  4  1  0  0  0  0
  3 39  2  0  0  0  0
  4  5  1  0  0  0  0
  4  6  1  0  0  0  0
  4 17  1  0  0  0  0
  7  8  1  0  0  0  0
  7 17  1  0  0  0  0
  7 50  2  0  0  0  0
  8  9  1  0  0  0  0
  8 32  1  0  0  0  0
  8 36  1  0  0  0  0
 10 11  1  0  0  0  0
 10 32  1  0  0  0  0
 10 51  2  0  0  0  0
 11 12  1  0  0  0  0
 11 13  1  0  0  0  0
 11 46  1  0  0  0  0
 13 14  1  0  0  0  0
 13 15  1  0  0  0  0
 13 16  1  0  0  0  0
 16 19  1  0  0  0  0
 16 27  2  0  0  0  0
 17 18  1  0  0  0  0
 19 20  1  0  0  0  0
 19 21  2  0  0  0  0
 21 22  1  0  0  0  0
 21 23  1  0  0  0  0
 23 24  1  0  0  0  0
 23 25  2  0  0  0  0
 25 26  1  0  0  0  0
 25 27  1  0  0  0  0
 27 28  1  0  0  0  0
 29 30  1  0  0  0  0
 29 31  1  0  0  0  0
 29 32  1  0  0  0  0
 29 33  1  0  0  0  0
 33 34  1  0  0  0  0
 33 35  1  0  0  0  0
 33 36  1  0  0  0  0
 36 37  1  0  0  0  0
 36 38  1  0  0  0  0
 39 40  1  0  0  0  0
 39 41  1  0  0  0  0
 41 42  2  0  0  0  0
 41 52  1  0  0  0  0
 42 43  1  0  0  0  0
 42 44  1  0  0  0  0
 44 45  1  0  0  0  0
 46 47  1  0  0  0  0
 46 48  1  0  0  0  0
 46 49  1  0  0  0  0
M  CHG  1  46   1
M  END
$$$$
thrombin_baum_02_1b_2zc9.H
  MOE2024           3D
thrombin_baum_02_1b_2zc9
 52 54  0  0  1  0  0  0  0  0999 V2000
   12.2960   -7.8330   24.4930 Cl  0  0  0  0  0  0  0  0  0  0  0  0
   18.1650  -14.9590   24.7060 C   0  0  0  0  0  0  0  0  0  0  0  0
   18.2120  -15.9731   25.1029 H   0  0  0  0  0  0  0  0  0  0  0  0
   17.4867  -14.3615   25.3151 H   0  0  0  0  0  0  0  0  0  0  0  0
   16.2910  -15.7020   23.2200 N   0  3  0  0  0  0  0  0  0  0  0  0
   16.3826  -16.6365   23.5920 H   0  0  0  0  0  0  0  0  0  0  0  0
   15.9691  -15.7503   22.2639 H   0  0  0  0  0  0  0  0  0  0  0  0
   15.6245  -15.1831   23.7738 H   0  0  0  0  0  0  0  0  0  0  0  0
   16.4750  -12.9720   23.1170 O   0  0  0  0  0  0  0  0  0  0  0  0
   17.6190  -15.0150   23.2650 C   0  0  3  0  0  0  0  0  0  0  0  0
   18.3410  -15.5731   22.6688 H   0  0  0  0  0  0  0  0  0  0  0  0
   18.1320  -13.1740   21.6230 N   0  0  0  0  0  0  0  0  0  0  0  0
   15.8790  -12.6740   19.9880 O   0  0  0  0  0  0  0  0  0  0  0  0
   17.4490  -13.6090   22.6980 C   0  0  0  0  0  0  0  0  0  0  0  0
   15.7410  -10.6040   20.8960 N   0  0  0  0  0  0  0  0  0  0  0  0
   16.1603   -9.8926   21.4776 H   0  0  0  0  0  0  0  0  0  0  0  0
   19.1960  -13.9380   20.9450 C   0  0  0  0  0  0  0  0  0  0  0  0
   18.7950  -14.6196   20.1948 H   0  0  0  0  0  0  0  0  0  0  0  0
   19.8116  -14.4958   21.6507 H   0  0  0  0  0  0  0  0  0  0  0  0
   19.9680  -12.7630   20.3060 C   0  0  0  0  0  0  0  0  0  0  0  0
   20.5502  -13.0956   19.4466 H   0  0  0  0  0  0  0  0  0  0  0  0
   20.6288  -12.2862   21.0299 H   0  0  0  0  0  0  0  0  0  0  0  0
   18.8250  -11.8030   19.8720 C   0  0  0  0  0  0  0  0  0  0  0  0
   18.3460  -12.1535   18.9578 H   0  0  0  0  0  0  0  0  0  0  0  0
   19.2007  -10.7911   19.7204 H   0  0  0  0  0  0  0  0  0  0  0  0
   17.8420  -11.8580   21.0720 C   0  0  3  0  0  0  0  0  0  0  0  0
   17.9592  -11.0457   21.7893 H   0  0  0  0  0  0  0  0  0  0  0  0
   16.4070  -11.7530   20.6010 C   0  0  0  0  0  0  0  0  0  0  0  0
   14.3830  -10.4310   20.3370 C   0  0  0  0  0  0  0  0  0  0  0  0
   14.1390  -11.2847   19.7048 H   0  0  0  0  0  0  0  0  0  0  0  0
   14.3483   -9.5176   19.7433 H   0  0  0  0  0  0  0  0  0  0  0  0
   13.3610  -10.3350   21.4880 C   0  0  0  0  0  0  0  0  0  0  0  0
   13.3210   -9.2280   22.3550 C   0  0  0  0  0  0  0  0  0  0  0  0
   14.0172   -8.4123   22.2270 H   0  0  0  0  0  0  0  0  0  0  0  0
   12.3740   -9.1900   23.3840 C   0  0  0  0  0  0  0  0  0  0  0  0
   11.4690  -10.2430   23.5450 C   0  0  0  0  0  0  0  0  0  0  0  0
   10.7260  -10.2049   24.3279 H   0  0  0  0  0  0  0  0  0  0  0  0
   11.5300  -11.3430   22.6900 C   0  0  0  0  0  0  0  0  0  0  0  0
   10.8559  -12.1748   22.8315 H   0  0  0  0  0  0  0  0  0  0  0  0
   12.4570  -11.3690   21.6570 C   0  0  0  0  0  0  0  0  0  0  0  0
   12.4729  -12.2073   20.9762 H   0  0  0  0  0  0  0  0  0  0  0  0
   19.5690  -14.3360   24.7730 C   0  0  0  0  0  0  0  0  0  0  0  0
   20.6610  -14.8710   24.0720 C   0  0  0  0  0  0  0  0  0  0  0  0
   20.5331  -15.7448   23.4503 H   0  0  0  0  0  0  0  0  0  0  0  0
   21.9200  -14.2620   24.1850 C   0  0  0  0  0  0  0  0  0  0  0  0
   22.7694  -14.6974   23.6797 H   0  0  0  0  0  0  0  0  0  0  0  0
   22.0890  -13.1080   24.9370 C   0  0  0  0  0  0  0  0  0  0  0  0
   23.0406  -12.5972   24.9342 H   0  0  0  0  0  0  0  0  0  0  0  0
   21.0200  -12.6010   25.7050 C   0  0  0  0  0  0  0  0  0  0  0  0
   21.1708  -11.7861   26.3975 H   0  0  0  0  0  0  0  0  0  0  0  0
   19.7620  -13.1830   25.5440 C   0  0  0  0  0  0  0  0  0  0  0  0
   18.9102  -12.7299   26.0294 H   0  0  0  0  0  0  0  0  0  0  0  0
  1 35  1  0  0  0  0
  2  3  1  0  0  0  0
  2  4  1  0  0  0  0
  2 10  1  0  0  0  0
  2 42  1  0  0  0  0
  5  6  1  0  0  0  0
  5  7  1  0  0  0  0
  5  8  1  0  0  0  0
  5 10  1  0  0  0  0
  9 14  2  0  0  0  0
 10 11  1  0  0  0  0
 10 14  1  0  0  0  0
 12 14  1  0  0  0  0
 12 17  1  0  0  0  0
 12 26  1  0  0  0  0
 13 28  2  0  0  0  0
 15 16  1  0  0  0  0
 15 28  1  0  0  0  0
 15 29  1  0  0  0  0
 17 18  1  0  0  0  0
 17 19  1  0  0  0  0
 17 20  1  0  0  0  0
 20 21  1  0  0  0  0
 20 22  1  0  0  0  0
 20 23  1  0  0  0  0
 23 24  1  0  0  0  0
 23 25  1  0  0  0  0
 23 26  1  0  0  0  0
 26 27  1  0  0  0  0
 26 28  1  0  0  0  0
 29 30  1  0  0  0  0
 29 31  1  0  0  0  0
 29 32  1  0  0  0  0
 32 33  1  0  0  0  0
 32 40  2  0  0  0  0
 33 34  1  0  0  0  0
 33 35  2  0  0  0  0
 35 36  1  0  0  0  0
 36 37  1  0  0  0  0
 36 38  2  0  0  0  0
 38 39  1  0  0  0  0
 38 40  1  0  0  0  0
 40 41  1  0  0  0  0
 42 43  1  0  0  0  0
 42 51  2  0  0  0  0
 43 44  1  0  0  0  0
 43 45  2  0  0  0  0
 45 46  1  0  0  0  0
 45 47  1  0  0  0  0
 47 48  1  0  0  0  0
 47 49  2  0  0  0  0
 49 50  1  0  0  0  0
 49 51  1  0  0  0  0
 51 52  1  0  0  0  0
M  CHG  1   5   1
M  END
$$$$
thrombin_baum_03_1c.H
  MOE2024           3D
thrombin_baum_03_1c
 52 54  0  0  1  0  0  0  0  0999 V2000
   12.6690  -11.4860   21.5370 C   0  0  0  0  0  0  0  0  0  0  0  0
   12.7155  -12.3250   20.8586 H   0  0  0  0  0  0  0  0  0  0  0  0
   13.5600  -10.4150   21.3790 C   0  0  0  0  0  0  0  0  0  0  0  0
   14.5810  -10.4600   20.2430 C   0  0  0  0  0  0  0  0  0  0  0  0
   14.5553   -9.5255   19.6825 H   0  0  0  0  0  0  0  0  0  0  0  0
   14.3570  -11.2911   19.5742 H   0  0  0  0  0  0  0  0  0  0  0  0
   16.5910  -11.7710   20.5870 C   0  0  0  0  0  0  0  0  0  0  0  0
   18.0270  -11.8630   21.0590 C   0  0  3  0  0  0  0  0  0  0  0  0
   18.1477  -11.0264   21.7472 H   0  0  0  0  0  0  0  0  0  0  0  0
   17.5180  -13.7090   22.6160 C   0  0  0  0  0  0  0  0  0  0  0  0
   17.6800  -15.0690   23.2530 C   0  0  3  0  0  0  0  0  0  0  0  0
   18.4787  -15.5934   22.7283 H   0  0  0  0  0  0  0  0  0  0  0  0
   18.1350  -14.9750   24.7300 C   0  0  0  0  0  0  0  0  0  0  0  0
   18.1127  -15.9670   25.1813 H   0  0  0  0  0  0  0  0  0  0  0  0
   17.4635  -14.3123   25.2759 H   0  0  0  0  0  0  0  0  0  0  0  0
   19.5710  -14.4150   24.7890 C   0  0  0  0  0  0  0  0  0  0  0  0
   15.9000  -10.6450   20.8440 N   0  0  0  0  0  0  0  0  0  0  0  0
   16.2896   -9.9344   21.4468 H   0  0  0  0  0  0  0  0  0  0  0  0
   20.6360  -15.0350   24.1300 C   0  0  0  0  0  0  0  0  0  0  0  0
   20.4662  -15.9353   23.5581 H   0  0  0  0  0  0  0  0  0  0  0  0
   21.9270  -14.4880   24.2110 C   0  0  0  0  0  0  0  0  0  0  0  0
   22.7434  -14.9736   23.6971 H   0  0  0  0  0  0  0  0  0  0  0  0
   22.1700  -13.3320   24.9420 C   0  0  0  0  0  0  0  0  0  0  0  0
   23.1684  -12.9236   24.9957 H   0  0  0  0  0  0  0  0  0  0  0  0
   21.1090  -12.6960   25.6120 C   0  0  0  0  0  0  0  0  0  0  0  0
   21.2819  -11.7969   26.1848 H   0  0  0  0  0  0  0  0  0  0  0  0
   19.8250  -13.2480   25.5240 C   0  0  0  0  0  0  0  0  0  0  0  0
   19.0080  -12.7616   26.0362 H   0  0  0  0  0  0  0  0  0  0  0  0
   19.2710  -13.9990   20.9150 C   0  0  0  0  0  0  0  0  0  0  0  0
   18.7778  -14.6306   20.1761 H   0  0  0  0  0  0  0  0  0  0  0  0
   19.8783  -14.6183   21.5750 H   0  0  0  0  0  0  0  0  0  0  0  0
   18.3160  -13.1690   21.6590 N   0  0  0  0  0  0  0  0  0  0  0  0
   20.0910  -12.8710   20.2600 C   0  0  0  0  0  0  0  0  0  0  0  0
   20.6325  -13.2354   19.3870 H   0  0  0  0  0  0  0  0  0  0  0  0
   20.7954  -12.4354   20.9687 H   0  0  0  0  0  0  0  0  0  0  0  0
   19.0090  -11.8520   19.8560 C   0  0  0  0  0  0  0  0  0  0  0  0
   19.4410  -10.8611   19.7157 H   0  0  0  0  0  0  0  0  0  0  0  0
   18.5056  -12.1618   18.9402 H   0  0  0  0  0  0  0  0  0  0  0  0
   13.4780   -9.3430   22.2670 C   0  0  0  0  0  0  0  0  0  0  0  0
   14.1585   -8.5118   22.1553 H   0  0  0  0  0  0  0  0  0  0  0  0
   12.5390   -9.3200   23.2940 C   0  0  0  0  0  0  0  0  0  0  0  0
   11.6590  -10.3950   23.4400 C   0  0  0  0  0  0  0  0  0  0  0  0
   10.9265  -10.3897   24.2336 H   0  0  0  0  0  0  0  0  0  0  0  0
   11.7270  -11.4780   22.5580 C   0  0  0  0  0  0  0  0  0  0  0  0
   11.0465  -12.3090   22.6707 H   0  0  0  0  0  0  0  0  0  0  0  0
   16.4240  -15.8630   23.1000 N   0  3  0  0  0  0  0  0  0  0  0  0
   15.6689  -15.3943   23.5797 H   0  0  0  0  0  0  0  0  0  0  0  0
   16.5562  -16.7821   23.4973 H   0  0  0  0  0  0  0  0  0  0  0  0
   16.1977  -15.9495   22.1195 H   0  0  0  0  0  0  0  0  0  0  0  0
   16.1160  -12.7330   19.9940 O   0  0  0  0  0  0  0  0  0  0  0  0
   16.5480  -13.0580   23.0520 O   0  0  0  0  0  0  0  0  0  0  0  0
   12.4284   -7.7912   24.5545 Br  0  0  0  0  0  0  0  0  0  0  0  0
  1  2  1  0  0  0  0
  1  3  1  0  0  0  0
  1 44  2  0  0  0  0
  3  4  1  0  0  0  0
  3 39  2  0  0  0  0
  4  5  1  0  0  0  0
  4  6  1  0  0  0  0
  4 17  1  0  0  0  0
  7  8  1  0  0  0  0
  7 17  1  0  0  0  0
  7 50  2  0  0  0  0
  8  9  1  0  0  0  0
  8 32  1  0  0  0  0
  8 36  1  0  0  0  0
 10 11  1  0  0  0  0
 10 32  1  0  0  0  0
 10 51  2  0  0  0  0
 11 12  1  0  0  0  0
 11 13  1  0  0  0  0
 11 46  1  0  0  0  0
 13 14  1  0  0  0  0
 13 15  1  0  0  0  0
 13 16  1  0  0  0  0
 16 19  1  0  0  0  0
 16 27  2  0  0  0  0
 17 18  1  0  0  0  0
 19 20  1  0  0  0  0
 19 21  2  0  0  0  0
 21 22  1  0  0  0  0
 21 23  1  0  0  0  0
 23 24  1  0  0  0  0
 23 25  2  0  0  0  0
 25 26  1  0  0  0  0
 25 27  1  0  0  0  0
 27 28  1  0  0  0  0
 29 30  1  0  0  0  0
 29 31  1  0  0  0  0
 29 32  1  0  0  0  0
 29 33  1  0  0  0  0
 33 34  1  0  0  0  0
 33 35  1  0  0  0  0
 33 36  1  0  0  0  0
 36 37  1  0  0  0  0
 36 38  1  0  0  0  0
 39 40  1  0  0  0  0
 39 41  1  0  0  0  0
 41 42  2  0  0  0  0
 41 52  1  0  0  0  0
 42 43  1  0  0  0  0
 42 44  1  0  0  0  0
 44 45  1  0  0  0  0
 46 47  1  0  0  0  0
 46 48  1  0  0  0  0
 46 49  1  0  0  0  0
M  CHG  1  46   1
M  END
$$$$
thrombin_baum_04_1d.H
  MOE2024           3D
thrombin_baum_04_1d
 52 54  0  0  1  0  0  0  0  0999 V2000
   12.6690  -11.4860   21.5370 C   0  0  0  0  0  0  0  0  0  0  0  0
   12.7155  -12.3250   20.8586 H   0  0  0  0  0  0  0  0  0  0  0  0
   13.5600  -10.4150   21.3790 C   0  0  0  0  0  0  0  0  0  0  0  0
   14.5810  -10.4600   20.2430 C   0  0  0  0  0  0  0  0  0  0  0  0
   14.5553   -9.5255   19.6825 H   0  0  0  0  0  0  0  0  0  0  0  0
   14.3570  -11.2911   19.5742 H   0  0  0  0  0  0  0  0  0  0  0  0
   16.5910  -11.7710   20.5870 C   0  0  0  0  0  0  0  0  0  0  0  0
   18.0270  -11.8630   21.0590 C   0  0  3  0  0  0  0  0  0  0  0  0
   18.1477  -11.0264   21.7472 H   0  0  0  0  0  0  0  0  0  0  0  0
   17.5180  -13.7090   22.6160 C   0  0  0  0  0  0  0  0  0  0  0  0
   17.6800  -15.0690   23.2530 C   0  0  3  0  0  0  0  0  0  0  0  0
   18.4787  -15.5934   22.7283 H   0  0  0  0  0  0  0  0  0  0  0  0
   18.1350  -14.9750   24.7300 C   0  0  0  0  0  0  0  0  0  0  0  0
   18.1127  -15.9670   25.1813 H   0  0  0  0  0  0  0  0  0  0  0  0
   17.4635  -14.3123   25.2759 H   0  0  0  0  0  0  0  0  0  0  0  0
   19.5710  -14.4150   24.7890 C   0  0  0  0  0  0  0  0  0  0  0  0
   15.9000  -10.6450   20.8440 N   0  0  0  0  0  0  0  0  0  0  0  0
   16.2896   -9.9344   21.4468 H   0  0  0  0  0  0  0  0  0  0  0  0
   20.6360  -15.0350   24.1300 C   0  0  0  0  0  0  0  0  0  0  0  0
   20.4662  -15.9353   23.5581 H   0  0  0  0  0  0  0  0  0  0  0  0
   21.9270  -14.4880   24.2110 C   0  0  0  0  0  0  0  0  0  0  0  0
   22.7434  -14.9736   23.6971 H   0  0  0  0  0  0  0  0  0  0  0  0
   22.1700  -13.3320   24.9420 C   0  0  0  0  0  0  0  0  0  0  0  0
   23.1684  -12.9236   24.9957 H   0  0  0  0  0  0  0  0  0  0  0  0
   21.1090  -12.6960   25.6120 C   0  0  0  0  0  0  0  0  0  0  0  0
   21.2819  -11.7969   26.1848 H   0  0  0  0  0  0  0  0  0  0  0  0
   19.8250  -13.2480   25.5240 C   0  0  0  0  0  0  0  0  0  0  0  0
   19.0080  -12.7616   26.0362 H   0  0  0  0  0  0  0  0  0  0  0  0
   19.2710  -13.9990   20.9150 C   0  0  0  0  0  0  0  0  0  0  0  0
   18.7778  -14.6306   20.1761 H   0  0  0  0  0  0  0  0  0  0  0  0
   19.8783  -14.6183   21.5750 H   0  0  0  0  0  0  0  0  0  0  0  0
   18.3160  -13.1690   21.6590 N   0  0  0  0  0  0  0  0  0  0  0  0
   20.0910  -12.8710   20.2600 C   0  0  0  0  0  0  0  0  0  0  0  0
   20.6325  -13.2354   19.3870 H   0  0  0  0  0  0  0  0  0  0  0  0
   20.7954  -12.4354   20.9687 H   0  0  0  0  0  0  0  0  0  0  0  0
   19.0090  -11.8520   19.8560 C   0  0  0  0  0  0  0  0  0  0  0  0
   19.4410  -10.8611   19.7157 H   0  0  0  0  0  0  0  0  0  0  0  0
   18.5056  -12.1618   18.9402 H   0  0  0  0  0  0  0  0  0  0  0  0
   13.4780   -9.3430   22.2670 C   0  0  0  0  0  0  0  0  0  0  0  0
   14.1585   -8.5118   22.1553 H   0  0  0  0  0  0  0  0  0  0  0  0
   12.5390   -9.3200   23.2940 C   0  0  0  0  0  0  0  0  0  0  0  0
   11.6590  -10.3950   23.4400 C   0  0  0  0  0  0  0  0  0  0  0  0
   10.9265  -10.3897   24.2336 H   0  0  0  0  0  0  0  0  0  0  0  0
   11.7270  -11.4780   22.5580 C   0  0  0  0  0  0  0  0  0  0  0  0
   11.0465  -12.3090   22.6707 H   0  0  0  0  0  0  0  0  0  0  0  0
   16.4240  -15.8630   23.1000 N   0  3  0  0  0  0  0  0  0  0  0  0
   15.6689  -15.3943   23.5797 H   0  0  0  0  0  0  0  0  0  0  0  0
   16.5562  -16.7821   23.4973 H   0  0  0  0  0  0  0  0  0  0  0  0
   16.1977  -15.9495   22.1195 H   0  0  0  0  0  0  0  0  0  0  0  0
   16.1160  -12.7330   19.9940 O   0  0  0  0  0  0  0  0  0  0  0  0
   16.5480  -13.0580   23.0520 O   0  0  0  0  0  0  0  0  0  0  0  0
   12.4173   -7.6375   24.6812 I   0  0  0  0  0  0  0  0  0  0  0  0
  1  2  1  0  0  0  0
  1  3  1  0  0  0  0
  1 44  2  0  0  0  0
  3  4  1  0  0  0  0
  3 39  2  0  0  0  0
  4  5  1  0  0  0  0
  4  6  1  0  0  0  0
  4 17  1  0  0  0  0
  7  8  1  0  0  0  0
  7 17  1  0  0  0  0
  7 50  2  0  0  0  0
  8  9  1  0  0  0  0
  8 32  1  0  0  0  0
  8 36  1  0  0  0  0
 10 11  1  0  0  0  0
 10 32  1  0  0  0  0
 10 51  2  0  0  0  0
 11 12  1  0  0  0  0
 11 13  1  0  0  0  0
 11 46  1  0  0  0  0
 13 14  1  0  0  0  0
 13 15  1  0  0  0  0
 13 16  1  0  0  0  0
 16 19  1  0  0  0  0
 16 27  2  0  0  0  0
 17 18  1  0  0  0  0
 19 20  1  0  0  0  0
 19 21  2  0  0  0  0
 21 22  1  0  0  0  0
 21 23  1  0  0  0  0
 23 24  1  0  0  0  0
 23 25  2  0  0  0  0
 25 26  1  0  0  0  0
 25 27  1  0  0  0  0
 27 28  1  0  0  0  0
 29 30  1  0  0  0  0
 29 31  1  0  0  0  0
 29 32  1  0  0  0  0
 29 33  1  0  0  0  0
 33 34  1  0  0  0  0
 33 35  1  0  0  0  0
 33 36  1  0  0  0  0
 36 37  1  0  0  0  0
 36 38  1  0  0  0  0
 39 40  1  0  0  0  0
 39 41  1  0  0  0  0
 41 42  2  0  0  0  0
 41 52  1  0  0  0  0
 42 43  1  0  0  0  0
 42 44  1  0  0  0  0
 44 45  1  0  0  0  0
 46 47  1  0  0  0  0
 46 48  1  0  0  0  0
 46 49  1  0  0  0  0
M  CHG  1  46   1
M  END
$$$$
thrombin_baum_05_2a.H
  MOE2024           3D
thrombin_baum_05_2a
 55 57  0  0  1  0  0  0  0  0999 V2000
   12.6904  -11.4921   21.5392 C   0  0  0  0  0  0  0  0  0  0  0  0
   12.7446  -12.3200   20.8786 H   0  0  0  0  0  0  0  0  0  0  0  0
   13.5600  -10.4150   21.3790 C   0  0  0  0  0  0  0  0  0  0  0  0
   14.5810  -10.4600   20.2430 C   0  0  0  0  0  0  0  0  0  0  0  0
   14.5553   -9.5255   19.6825 H   0  0  0  0  0  0  0  0  0  0  0  0
   14.3570  -11.2911   19.5742 H   0  0  0  0  0  0  0  0  0  0  0  0
   16.5910  -11.7710   20.5870 C   0  0  0  0  0  0  0  0  0  0  0  0
   18.0270  -11.8630   21.0590 C   0  0  3  0  0  0  0  0  0  0  0  0
   18.1477  -11.0264   21.7472 H   0  0  0  0  0  0  0  0  0  0  0  0
   17.5180  -13.7090   22.6160 C   0  0  0  0  0  0  0  0  0  0  0  0
   17.6800  -15.0690   23.2530 C   0  0  3  0  0  0  0  0  0  0  0  0
   18.4787  -15.5934   22.7283 H   0  0  0  0  0  0  0  0  0  0  0  0
   18.1350  -14.9750   24.7300 C   0  0  0  0  0  0  0  0  0  0  0  0
   18.1127  -15.9670   25.1813 H   0  0  0  0  0  0  0  0  0  0  0  0
   17.4635  -14.3123   25.2759 H   0  0  0  0  0  0  0  0  0  0  0  0
   19.5710  -14.4150   24.7890 C   0  0  0  0  0  0  0  0  0  0  0  0
   15.9000  -10.6450   20.8440 N   0  0  0  0  0  0  0  0  0  0  0  0
   16.2896   -9.9344   21.4468 H   0  0  0  0  0  0  0  0  0  0  0  0
   20.6360  -15.0350   24.1300 C   0  0  0  0  0  0  0  0  0  0  0  0
   20.4662  -15.9353   23.5581 H   0  0  0  0  0  0  0  0  0  0  0  0
   21.9270  -14.4880   24.2110 C   0  0  0  0  0  0  0  0  0  0  0  0
   22.7434  -14.9736   23.6971 H   0  0  0  0  0  0  0  0  0  0  0  0
   22.1700  -13.3320   24.9420 C   0  0  0  0  0  0  0  0  0  0  0  0
   23.1684  -12.9236   24.9957 H   0  0  0  0  0  0  0  0  0  0  0  0
   21.1090  -12.6960   25.6120 C   0  0  0  0  0  0  0  0  0  0  0  0
   21.2819  -11.7969   26.1848 H   0  0  0  0  0  0  0  0  0  0  0  0
   19.8250  -13.2480   25.5240 C   0  0  0  0  0  0  0  0  0  0  0  0
   19.0080  -12.7616   26.0362 H   0  0  0  0  0  0  0  0  0  0  0  0
   19.2710  -13.9990   20.9150 C   0  0  0  0  0  0  0  0  0  0  0  0
   18.7778  -14.6306   20.1761 H   0  0  0  0  0  0  0  0  0  0  0  0
   19.8783  -14.6183   21.5750 H   0  0  0  0  0  0  0  0  0  0  0  0
   18.3160  -13.1690   21.6590 N   0  0  0  0  0  0  0  0  0  0  0  0
   20.0910  -12.8710   20.2600 C   0  0  0  0  0  0  0  0  0  0  0  0
   20.6325  -13.2354   19.3870 H   0  0  0  0  0  0  0  0  0  0  0  0
   20.7954  -12.4354   20.9687 H   0  0  0  0  0  0  0  0  0  0  0  0
   19.0090  -11.8520   19.8560 C   0  0  0  0  0  0  0  0  0  0  0  0
   19.4410  -10.8611   19.7157 H   0  0  0  0  0  0  0  0  0  0  0  0
   18.5056  -12.1618   18.9402 H   0  0  0  0  0  0  0  0  0  0  0  0
   13.4780   -9.3430   22.2670 C   0  0  0  0  0  0  0  0  0  0  0  0
   14.1384   -8.5217   22.1441 H   0  0  0  0  0  0  0  0  0  0  0  0
   12.5453   -9.3336   23.3112 C   0  0  0  0  0  0  0  0  0  0  0  0
   11.6731  -10.4198   23.4418 C   0  0  0  0  0  0  0  0  0  0  0  0
   10.9448  -10.4358   24.2140 H   0  0  0  0  0  0  0  0  0  0  0  0
   11.7483  -11.4924   22.5611 C   0  0  0  0  0  0  0  0  0  0  0  0
   11.0851  -12.3127   22.6685 H   0  0  0  0  0  0  0  0  0  0  0  0
   16.4240  -15.8630   23.1000 N   0  3  0  0  0  0  0  0  0  0  0  0
   15.6689  -15.3943   23.5797 H   0  0  0  0  0  0  0  0  0  0  0  0
   16.5562  -16.7821   23.4973 H   0  0  0  0  0  0  0  0  0  0  0  0
   16.1977  -15.9495   22.1195 H   0  0  0  0  0  0  0  0  0  0  0  0
   16.1160  -12.7330   19.9940 O   0  0  0  0  0  0  0  0  0  0  0  0
   16.5480  -13.0580   23.0520 O   0  0  0  0  0  0  0  0  0  0  0  0
   12.4718   -8.1399   24.2720 C   0  0  0  0  0  0  0  0  0  0  0  0
   13.7059   -7.6441   24.4940 F   0  0  0  0  0  0  0  0  0  0  0  0
   11.9371   -8.5071   25.4532 F   0  0  0  0  0  0  0  0  0  0  0  0
   11.7091   -7.1783   23.7270 F   0  0  0  0  0  0  0  0  0  0  0  0
  1  2  1  0  0  0  0
  1  3  1  0  0  0  0
  1 44  2  0  0  0  0
  3  4  1  0  0  0  0
  3 39  2  0  0  0  0
  4  5  1  0  0  0  0
  4  6  1  0  0  0  0
  4 17  1  0  0  0  0
  7  8  1  0  0  0  0
  7 17  1  0  0  0  0
  7 50  2  0  0  0  0
  8  9  1  0  0  0  0
  8 32  1  0  0  0  0
  8 36  1  0  0  0  0
 10 11  1  0  0  0  0
 10 32  1  0  0  0  0
 10 51  2  0  0  0  0
 11 12  1  0  0  0  0
 11 13  1  0  0  0  0
 11 46  1  0  0  0  0
 13 14  1  0  0  0  0
 13 15  1  0  0  0  0
 13 16  1  0  0  0  0
 16 19  1  0  0  0  0
 16 27  2  0  0  0  0
 17 18  1  0  0  0  0
 19 20  1  0  0  0  0
 19 21  2  0  0  0  0
 21 22  1  0  0  0  0
 21 23  1  0  0  0  0
 23 24  1  0  0  0  0
 23 25  2  0  0  0  0
 25 26  1  0  0  0  0
 25 27  1  0  0  0  0
 27 28  1  0  0  0  0
 29 30  1  0  0  0  0
 29 31  1  0  0  0  0
 29 32  1  0  0  0  0
 29 33  1  0  0  0  0
 33 34  1  0  0  0  0
 33 35  1  0  0  0  0
 33 36  1  0  0  0  0
 36 37  1  0  0  0  0
 36 38  1  0  0  0  0
 39 40  1  0  0  0  0
 39 41  1  0  0  0  0
 41 42  2  0  0  0  0
 41 52  1  0  0  0  0
 42 43  1  0  0  0  0
 42 44  1  0  0  0  0
 44 45  1  0  0  0  0
 46 47  1  0  0  0  0
 46 48  1  0  0  0  0
 46 49  1  0  0  0  0
 52 53  1  0  0  0  0
 52 54  1  0  0  0  0
 52 55  1  0  0  0  0
M  CHG  1  46   1
M  END
$$$$
thrombin_baum_06_2b.H
  MOE2024           3D
thrombin_baum_06_2b
 56 58  0  0  1  0  0  0  0  0999 V2000
   12.6860  -11.4946   21.5349 C   0  0  0  0  0  0  0  0  0  0  0  0
   12.7434  -12.3207   20.8729 H   0  0  0  0  0  0  0  0  0  0  0  0
   13.5600  -10.4150   21.3790 C   0  0  0  0  0  0  0  0  0  0  0  0
   14.5810  -10.4600   20.2430 C   0  0  0  0  0  0  0  0  0  0  0  0
   14.5553   -9.5255   19.6825 H   0  0  0  0  0  0  0  0  0  0  0  0
   14.3570  -11.2911   19.5742 H   0  0  0  0  0  0  0  0  0  0  0  0
   16.5910  -11.7710   20.5870 C   0  0  0  0  0  0  0  0  0  0  0  0
   18.0270  -11.8630   21.0590 C   0  0  3  0  0  0  0  0  0  0  0  0
   18.1477  -11.0264   21.7472 H   0  0  0  0  0  0  0  0  0  0  0  0
   17.5180  -13.7090   22.6160 C   0  0  0  0  0  0  0  0  0  0  0  0
   17.6800  -15.0690   23.2530 C   0  0  3  0  0  0  0  0  0  0  0  0
   18.4787  -15.5934   22.7283 H   0  0  0  0  0  0  0  0  0  0  0  0
   18.1350  -14.9750   24.7300 C   0  0  0  0  0  0  0  0  0  0  0  0
   18.1127  -15.9670   25.1813 H   0  0  0  0  0  0  0  0  0  0  0  0
   17.4635  -14.3123   25.2759 H   0  0  0  0  0  0  0  0  0  0  0  0
   19.5710  -14.4150   24.7890 C   0  0  0  0  0  0  0  0  0  0  0  0
   15.9000  -10.6450   20.8440 N   0  0  0  0  0  0  0  0  0  0  0  0
   16.2896   -9.9344   21.4468 H   0  0  0  0  0  0  0  0  0  0  0  0
   20.6360  -15.0350   24.1300 C   0  0  0  0  0  0  0  0  0  0  0  0
   20.4662  -15.9353   23.5581 H   0  0  0  0  0  0  0  0  0  0  0  0
   21.9270  -14.4880   24.2110 C   0  0  0  0  0  0  0  0  0  0  0  0
   22.7434  -14.9736   23.6971 H   0  0  0  0  0  0  0  0  0  0  0  0
   22.1700  -13.3320   24.9420 C   0  0  0  0  0  0  0  0  0  0  0  0
   23.1684  -12.9236   24.9957 H   0  0  0  0  0  0  0  0  0  0  0  0
   21.1090  -12.6960   25.6120 C   0  0  0  0  0  0  0  0  0  0  0  0
   21.2819  -11.7969   26.1848 H   0  0  0  0  0  0  0  0  0  0  0  0
   19.8250  -13.2480   25.5240 C   0  0  0  0  0  0  0  0  0  0  0  0
   19.0080  -12.7616   26.0362 H   0  0  0  0  0  0  0  0  0  0  0  0
   19.2710  -13.9990   20.9150 C   0  0  0  0  0  0  0  0  0  0  0  0
   18.7778  -14.6306   20.1761 H   0  0  0  0  0  0  0  0  0  0  0  0
   19.8783  -14.6183   21.5750 H   0  0  0  0  0  0  0  0  0  0  0  0
   18.3160  -13.1690   21.6590 N   0  0  0  0  0  0  0  0  0  0  0  0
   20.0910  -12.8710   20.2600 C   0  0  0  0  0  0  0  0  0  0  0  0
   20.6325  -13.2354   19.3870 H   0  0  0  0  0  0  0  0  0  0  0  0
   20.7954  -12.4354   20.9687 H   0  0  0  0  0  0  0  0  0  0  0  0
   19.0090  -11.8520   19.8560 C   0  0  0  0  0  0  0  0  0  0  0  0
   19.4410  -10.8611   19.7157 H   0  0  0  0  0  0  0  0  0  0  0  0
   18.5056  -12.1618   18.9402 H   0  0  0  0  0  0  0  0  0  0  0  0
   13.4780   -9.3430   22.2670 C   0  0  0  0  0  0  0  0  0  0  0  0
   14.1358   -8.5226   22.1623 H   0  0  0  0  0  0  0  0  0  0  0  0
   12.5249   -9.3551   23.2875 C   0  0  0  0  0  0  0  0  0  0  0  0
   12.3997   -8.3173   24.1852 O   0  0  0  0  0  0  0  0  0  0  0  0
   13.1956   -7.1120   24.1794 C   0  0  0  0  0  0  0  0  0  0  0  0
   12.8473   -6.4799   24.9962 H   0  0  0  0  0  0  0  0  0  0  0  0
   13.0521   -6.6106   23.2219 H   0  0  0  0  0  0  0  0  0  0  0  0
   14.2391   -7.3892   24.3302 H   0  0  0  0  0  0  0  0  0  0  0  0
   11.6536  -10.4281   23.4350 C   0  0  0  0  0  0  0  0  0  0  0  0
   10.9356  -10.4193   24.2133 H   0  0  0  0  0  0  0  0  0  0  0  0
   11.7364  -11.5004   22.5548 C   0  0  0  0  0  0  0  0  0  0  0  0
   11.0754  -12.3223   22.6591 H   0  0  0  0  0  0  0  0  0  0  0  0
   16.4240  -15.8630   23.1000 N   0  3  0  0  0  0  0  0  0  0  0  0
   15.6689  -15.3943   23.5797 H   0  0  0  0  0  0  0  0  0  0  0  0
   16.5562  -16.7821   23.4973 H   0  0  0  0  0  0  0  0  0  0  0  0
   16.1977  -15.9495   22.1195 H   0  0  0  0  0  0  0  0  0  0  0  0
   16.1160  -12.7330   19.9940 O   0  0  0  0  0  0  0  0  0  0  0  0
   16.5480  -13.0580   23.0520 O   0  0  0  0  0  0  0  0  0  0  0  0
  1  2  1  0  0  0  0
  1  3  1  0  0  0  0
  1 49  2  0  0  0  0
  3  4  1  0  0  0  0
  3 39  2  0  0  0  0
  4  5  1  0  0  0  0
  4  6  1  0  0  0  0
  4 17  1  0  0  0  0
  7  8  1  0  0  0  0
  7 17  1  0  0  0  0
  7 55  2  0  0  0  0
  8  9  1  0  0  0  0
  8 32  1  0  0  0  0
  8 36  1  0  0  0  0
 10 11  1  0  0  0  0
 10 32  1  0  0  0  0
 10 56  2  0  0  0  0
 11 12  1  0  0  0  0
 11 13  1  0  0  0  0
 11 51  1  0  0  0  0
 13 14  1  0  0  0  0
 13 15  1  0  0  0  0
 13 16  1  0  0  0  0
 16 19  1  0  0  0  0
 16 27  2  0  0  0  0
 17 18  1  0  0  0  0
 19 20  1  0  0  0  0
 19 21  2  0  0  0  0
 21 22  1  0  0  0  0
 21 23  1  0  0  0  0
 23 24  1  0  0  0  0
 23 25  2  0  0  0  0
 25 26  1  0  0  0  0
 25 27  1  0  0  0  0
 27 28  1  0  0  0  0
 29 30  1  0  0  0  0
 29 31  1  0  0  0  0
 29 32  1  0  0  0  0
 29 33  1  0  0  0  0
 33 34  1  0  0  0  0
 33 35  1  0  0  0  0
 33 36  1  0  0  0  0
 36 37  1  0  0  0  0
 36 38  1  0  0  0  0
 39 40  1  0  0  0  0
 39 41  1  0  0  0  0
 41 42  1  0  0  0  0
 41 47  2  0  0  0  0
 42 43  1  0  0  0  0
 43 44  1  0  0  0  0
 43 45  1  0  0  0  0
 43 46  1  0  0  0  0
 47 48  1  0  0  0  0
 47 49  1  0  0  0  0
 49 50  1  0  0  0  0
 51 52  1  0  0  0  0
 51 53  1  0  0  0  0
 51 54  1  0  0  0  0
M  CHG  1  51   1
M  END
$$$$
thrombin_baum_07_2c.H
  MOE2024           3D
thrombin_baum_07_2c
 53 55  0  0  1  0  0  0  0  0999 V2000
   12.6853  -11.4947   21.5362 C   0  0  0  0  0  0  0  0  0  0  0  0
   12.7423  -12.3210   20.8743 H   0  0  0  0  0  0  0  0  0  0  0  0
   13.5600  -10.4150   21.3790 C   0  0  0  0  0  0  0  0  0  0  0  0
   14.5810  -10.4600   20.2430 C   0  0  0  0  0  0  0  0  0  0  0  0
   14.5553   -9.5255   19.6825 H   0  0  0  0  0  0  0  0  0  0  0  0
   14.3570  -11.2911   19.5742 H   0  0  0  0  0  0  0  0  0  0  0  0
   16.5910  -11.7710   20.5870 C   0  0  0  0  0  0  0  0  0  0  0  0
   18.0270  -11.8630   21.0590 C   0  0  3  0  0  0  0  0  0  0  0  0
   18.1477  -11.0264   21.7472 H   0  0  0  0  0  0  0  0  0  0  0  0
   17.5180  -13.7090   22.6160 C   0  0  0  0  0  0  0  0  0  0  0  0
   17.6800  -15.0690   23.2530 C   0  0  3  0  0  0  0  0  0  0  0  0
   18.4787  -15.5934   22.7283 H   0  0  0  0  0  0  0  0  0  0  0  0
   18.1350  -14.9750   24.7300 C   0  0  0  0  0  0  0  0  0  0  0  0
   18.1127  -15.9670   25.1813 H   0  0  0  0  0  0  0  0  0  0  0  0
   17.4635  -14.3123   25.2759 H   0  0  0  0  0  0  0  0  0  0  0  0
   19.5710  -14.4150   24.7890 C   0  0  0  0  0  0  0  0  0  0  0  0
   15.9000  -10.6450   20.8440 N   0  0  0  0  0  0  0  0  0  0  0  0
   16.2896   -9.9344   21.4468 H   0  0  0  0  0  0  0  0  0  0  0  0
   20.6360  -15.0350   24.1300 C   0  0  0  0  0  0  0  0  0  0  0  0
   20.4662  -15.9353   23.5581 H   0  0  0  0  0  0  0  0  0  0  0  0
   21.9270  -14.4880   24.2110 C   0  0  0  0  0  0  0  0  0  0  0  0
   22.7434  -14.9736   23.6971 H   0  0  0  0  0  0  0  0  0  0  0  0
   22.1700  -13.3320   24.9420 C   0  0  0  0  0  0  0  0  0  0  0  0
   23.1684  -12.9236   24.9957 H   0  0  0  0  0  0  0  0  0  0  0  0
   21.1090  -12.6960   25.6120 C   0  0  0  0  0  0  0  0  0  0  0  0
   21.2819  -11.7969   26.1848 H   0  0  0  0  0  0  0  0  0  0  0  0
   19.8250  -13.2480   25.5240 C   0  0  0  0  0  0  0  0  0  0  0  0
   19.0080  -12.7616   26.0362 H   0  0  0  0  0  0  0  0  0  0  0  0
   19.2710  -13.9990   20.9150 C   0  0  0  0  0  0  0  0  0  0  0  0
   18.7778  -14.6306   20.1761 H   0  0  0  0  0  0  0  0  0  0  0  0
   19.8783  -14.6183   21.5750 H   0  0  0  0  0  0  0  0  0  0  0  0
   18.3160  -13.1690   21.6590 N   0  0  0  0  0  0  0  0  0  0  0  0
   20.0910  -12.8710   20.2600 C   0  0  0  0  0  0  0  0  0  0  0  0
   20.6325  -13.2354   19.3870 H   0  0  0  0  0  0  0  0  0  0  0  0
   20.7954  -12.4354   20.9687 H   0  0  0  0  0  0  0  0  0  0  0  0
   19.0090  -11.8520   19.8560 C   0  0  0  0  0  0  0  0  0  0  0  0
   19.4410  -10.8611   19.7157 H   0  0  0  0  0  0  0  0  0  0  0  0
   18.5056  -12.1618   18.9402 H   0  0  0  0  0  0  0  0  0  0  0  0
   13.4780   -9.3430   22.2670 C   0  0  0  0  0  0  0  0  0  0  0  0
   14.1332   -8.5185   22.1670 H   0  0  0  0  0  0  0  0  0  0  0  0
   12.5268   -9.3608   23.2836 C   0  0  0  0  0  0  0  0  0  0  0  0
   12.4392   -8.3161   24.1495 O   0  0  0  0  0  0  0  0  0  0  0  0
   13.1004   -7.6333   23.9337 H   0  0  0  0  0  0  0  0  0  0  0  0
   11.6530  -10.4289   23.4374 C   0  0  0  0  0  0  0  0  0  0  0  0
   10.9360  -10.4184   24.2170 H   0  0  0  0  0  0  0  0  0  0  0  0
   11.7354  -11.5012   22.5569 C   0  0  0  0  0  0  0  0  0  0  0  0
   11.0747  -12.3232   22.6614 H   0  0  0  0  0  0  0  0  0  0  0  0
   16.4240  -15.8630   23.1000 N   0  3  0  0  0  0  0  0  0  0  0  0
   15.6689  -15.3943   23.5797 H   0  0  0  0  0  0  0  0  0  0  0  0
   16.5562  -16.7821   23.4973 H   0  0  0  0  0  0  0  0  0  0  0  0
   16.1977  -15.9495   22.1195 H   0  0  0  0  0  0  0  0  0  0  0  0
   16.1160  -12.7330   19.9940 O   0  0  0  0  0  0  0  0  0  0  0  0
   16.5480  -13.0580   23.0520 O   0  0  0  0  0  0  0  0  0  0  0  0
  1  2  1  0  0  0  0
  1  3  1  0  0  0  0
  1 46  2  0  0  0  0
  3  4  1  0  0  0  0
  3 39  2  0  0  0  0
  4  5  1  0  0  0  0
  4  6  1  0  0  0  0
  4 17  1  0  0  0  0
  7  8  1  0  0  0  0
  7 17  1  0  0  0  0
  7 52  2  0  0  0  0
  8  9  1  0  0  0  0
  8 32  1  0  0  0  0
  8 36  1  0  0  0  0
 10 11  1  0  0  0  0
 10 32  1  0  0  0  0
 10 53  2  0  0  0  0
 11 12  1  0  0  0  0
 11 13  1  0  0  0  0
 11 48  1  0  0  0  0
 13 14  1  0  0  0  0
 13 15  1  0  0  0  0
 13 16  1  0  0  0  0
 16 19  1  0  0  0  0
 16 27  2  0  0  0  0
 17 18  1  0  0  0  0
 19 20  1  0  0  0  0
 19 21  2  0  0  0  0
 21 22  1  0  0  0  0
 21 23  1  0  0  0  0
 23 24  1  0  0  0  0
 23 25  2  0  0  0  0
 25 26  1  0  0  0  0
 25 27  1  0  0  0  0
 27 28  1  0  0  0  0
 29 30  1  0  0  0  0
 29 31  1  0  0  0  0
 29 32  1  0  0  0  0
 29 33  1  0  0  0  0
 33 34  1  0  0  0  0
 33 35  1  0  0  0  0
 33 36  1  0  0  0  0
 36 37  1  0  0  0  0
 36 38  1  0  0  0  0
 39 40  1  0  0  0  0
 39 41  1  0  0  0  0
 41 42  1  0  0  0  0
 41 44  2  0  0  0  0
 42 43  1  0  0  0  0
 44 45  1  0  0  0  0
 44 46  1  0  0  0  0
 46 47  1  0  0  0  0
 48 49  1  0  0  0  0
 48 50  1  0  0  0  0
 48 51  1  0  0  0  0
M  CHG  1  48   1
M  END
$$$$
thrombin_baum_08_2d.H
  MOE2024           3D
thrombin_baum_08_2d
 54 56  0  0  1  0  0  0  0  0999 V2000
   12.6891  -11.4969   21.5403 C   0  0  0  0  0  0  0  0  0  0  0  0
   12.7459  -12.3245   20.8803 H   0  0  0  0  0  0  0  0  0  0  0  0
   13.5600  -10.4150   21.3790 C   0  0  0  0  0  0  0  0  0  0  0  0
   14.5810  -10.4600   20.2430 C   0  0  0  0  0  0  0  0  0  0  0  0
   14.5553   -9.5255   19.6825 H   0  0  0  0  0  0  0  0  0  0  0  0
   14.3570  -11.2911   19.5742 H   0  0  0  0  0  0  0  0  0  0  0  0
   16.5910  -11.7710   20.5870 C   0  0  0  0  0  0  0  0  0  0  0  0
   18.0270  -11.8630   21.0590 C   0  0  3  0  0  0  0  0  0  0  0  0
   18.1477  -11.0264   21.7472 H   0  0  0  0  0  0  0  0  0  0  0  0
   17.5180  -13.7090   22.6160 C   0  0  0  0  0  0  0  0  0  0  0  0
   17.6800  -15.0690   23.2530 C   0  0  3  0  0  0  0  0  0  0  0  0
   18.4787  -15.5934   22.7283 H   0  0  0  0  0  0  0  0  0  0  0  0
   18.1350  -14.9750   24.7300 C   0  0  0  0  0  0  0  0  0  0  0  0
   18.1127  -15.9670   25.1813 H   0  0  0  0  0  0  0  0  0  0  0  0
   17.4635  -14.3123   25.2759 H   0  0  0  0  0  0  0  0  0  0  0  0
   19.5710  -14.4150   24.7890 C   0  0  0  0  0  0  0  0  0  0  0  0
   15.9000  -10.6450   20.8440 N   0  0  0  0  0  0  0  0  0  0  0  0
   16.2896   -9.9344   21.4468 H   0  0  0  0  0  0  0  0  0  0  0  0
   20.6360  -15.0350   24.1300 C   0  0  0  0  0  0  0  0  0  0  0  0
   20.4662  -15.9353   23.5581 H   0  0  0  0  0  0  0  0  0  0  0  0
   21.9270  -14.4880   24.2110 C   0  0  0  0  0  0  0  0  0  0  0  0
   22.7434  -14.9736   23.6971 H   0  0  0  0  0  0  0  0  0  0  0  0
   22.1700  -13.3320   24.9420 C   0  0  0  0  0  0  0  0  0  0  0  0
   23.1684  -12.9236   24.9957 H   0  0  0  0  0  0  0  0  0  0  0  0
   21.1090  -12.6960   25.6120 C   0  0  0  0  0  0  0  0  0  0  0  0
   21.2819  -11.7969   26.1848 H   0  0  0  0  0  0  0  0  0  0  0  0
   19.8250  -13.2480   25.5240 C   0  0  0  0  0  0  0  0  0  0  0  0
   19.0080  -12.7616   26.0362 H   0  0  0  0  0  0  0  0  0  0  0  0
   19.2710  -13.9990   20.9150 C   0  0  0  0  0  0  0  0  0  0  0  0
   18.7778  -14.6306   20.1761 H   0  0  0  0  0  0  0  0  0  0  0  0
   19.8783  -14.6183   21.5750 H   0  0  0  0  0  0  0  0  0  0  0  0
   18.3160  -13.1690   21.6590 N   0  0  0  0  0  0  0  0  0  0  0  0
   20.0910  -12.8710   20.2600 C   0  0  0  0  0  0  0  0  0  0  0  0
   20.6325  -13.2354   19.3870 H   0  0  0  0  0  0  0  0  0  0  0  0
   20.7954  -12.4354   20.9687 H   0  0  0  0  0  0  0  0  0  0  0  0
   19.0090  -11.8520   19.8560 C   0  0  0  0  0  0  0  0  0  0  0  0
   19.4410  -10.8611   19.7157 H   0  0  0  0  0  0  0  0  0  0  0  0
   18.5056  -12.1618   18.9402 H   0  0  0  0  0  0  0  0  0  0  0  0
   13.4780   -9.3430   22.2670 C   0  0  0  0  0  0  0  0  0  0  0  0
   14.1328   -8.5179   22.1723 H   0  0  0  0  0  0  0  0  0  0  0  0
   12.5288   -9.3512   23.2878 C   0  0  0  0  0  0  0  0  0  0  0  0
   12.4409   -8.2682   24.1501 N   0  0  0  0  0  0  0  0  0  0  0  0
   12.7992   -7.3860   23.7596 H   0  0  0  0  0  0  0  0  0  0  0  0
   11.5285   -8.1752   24.6179 H   0  0  0  0  0  0  0  0  0  0  0  0
   11.6627  -10.4303   23.4470 C   0  0  0  0  0  0  0  0  0  0  0  0
   10.9523  -10.4303   24.2313 H   0  0  0  0  0  0  0  0  0  0  0  0
   11.7460  -11.5026   22.5676 C   0  0  0  0  0  0  0  0  0  0  0  0
   11.0909  -12.3282   22.6775 H   0  0  0  0  0  0  0  0  0  0  0  0
   16.4240  -15.8630   23.1000 N   0  3  0  0  0  0  0  0  0  0  0  0
   15.6689  -15.3943   23.5797 H   0  0  0  0  0  0  0  0  0  0  0  0
   16.5562  -16.7821   23.4973 H   0  0  0  0  0  0  0  0  0  0  0  0
   16.1977  -15.9495   22.1195 H   0  0  0  0  0  0  0  0  0  0  0  0
   16.1160  -12.7330   19.9940 O   0  0  0  0  0  0  0  0  0  0  0  0
   16.5480  -13.0580   23.0520 O   0  0  0  0  0  0  0  0  0  0  0  0
  1  2  1  0  0  0  0
  1  3  1  0  0  0  0
  1 47  2  0  0  0  0
  3  4  1  0  0  0  0
  3 39  2  0  0  0  0
  4  5  1  0  0  0  0
  4  6  1  0  0  0  0
  4 17  1  0  0  0  0
  7  8  1  0  0  0  0
  7 17  1  0  0  0  0
  7 53  2  0  0  0  0
  8  9  1  0  0  0  0
  8 32  1  0  0  0  0
  8 36  1  0  0  0  0
 10 11  1  0  0  0  0
 10 32  1  0  0  0  0
 10 54  2  0  0  0  0
 11 12  1  0  0  0  0
 11 13  1  0  0  0  0
 11 49  1  0  0  0  0
 13 14  1  0  0  0  0
 13 15  1  0  0  0  0
 13 16  1  0  0  0  0
 16 19  1  0  0  0  0
 16 27  2  0  0  0  0
 17 18  1  0  0  0  0
 19 20  1  0  0  0  0
 19 21  2  0  0  0  0
 21 22  1  0  0  0  0
 21 23  1  0  0  0  0
 23 24  1  0  0  0  0
 23 25  2  0  0  0  0
 25 26  1  0  0  0  0
 25 27  1  0  0  0  0
 27 28  1  0  0  0  0
 29 30  1  0  0  0  0
 29 31  1  0  0  0  0
 29 32  1  0  0  0  0
 29 33  1  0  0  0  0
 33 34  1  0  0  0  0
 33 35  1  0  0  0  0
 33 36  1  0  0  0  0
 36 37  1  0  0  0  0
 36 38  1  0  0  0  0
 39 40  1  0  0  0  0
 39 41  1  0  0  0  0
 41 42  1  0  0  0  0
 41 45  2  0  0  0  0
 42 43  1  0  0  0  0
 42 44  1  0  0  0  0
 45 46  1  0  0  0  0
 45 47  1  0  0  0  0
 47 48  1  0  0  0  0
 49 50  1  0  0  0  0
 49 51  1  0  0  0  0
 49 52  1  0  0  0  0
M  CHG  1  49   1
M  END
$$$$
thrombin_baum_09_2e.H
  MOE2024           3D
thrombin_baum_09_2e
 54 56  0  0  1  0  0  0  0  0999 V2000
   12.6891  -11.4969   21.5403 C   0  0  0  0  0  0  0  0  0  0  0  0
   12.7488  -12.3217   20.8753 H   0  0  0  0  0  0  0  0  0  0  0  0
   13.5600  -10.4150   21.3790 C   0  0  0  0  0  0  0  0  0  0  0  0
   14.5810  -10.4600   20.2430 C   0  0  0  0  0  0  0  0  0  0  0  0
   14.5553   -9.5255   19.6825 H   0  0  0  0  0  0  0  0  0  0  0  0
   14.3570  -11.2911   19.5742 H   0  0  0  0  0  0  0  0  0  0  0  0
   16.5910  -11.7710   20.5870 C   0  0  0  0  0  0  0  0  0  0  0  0
   18.0270  -11.8630   21.0590 C   0  0  3  0  0  0  0  0  0  0  0  0
   18.1477  -11.0264   21.7472 H   0  0  0  0  0  0  0  0  0  0  0  0
   17.5180  -13.7090   22.6160 C   0  0  0  0  0  0  0  0  0  0  0  0
   17.6800  -15.0690   23.2530 C   0  0  3  0  0  0  0  0  0  0  0  0
   18.4787  -15.5934   22.7283 H   0  0  0  0  0  0  0  0  0  0  0  0
   18.1350  -14.9750   24.7300 C   0  0  0  0  0  0  0  0  0  0  0  0
   18.1127  -15.9670   25.1813 H   0  0  0  0  0  0  0  0  0  0  0  0
   17.4635  -14.3123   25.2759 H   0  0  0  0  0  0  0  0  0  0  0  0
   19.5710  -14.4150   24.7890 C   0  0  0  0  0  0  0  0  0  0  0  0
   15.9000  -10.6450   20.8440 N   0  0  0  0  0  0  0  0  0  0  0  0
   16.2896   -9.9344   21.4468 H   0  0  0  0  0  0  0  0  0  0  0  0
   20.6360  -15.0350   24.1300 C   0  0  0  0  0  0  0  0  0  0  0  0
   20.4662  -15.9353   23.5581 H   0  0  0  0  0  0  0  0  0  0  0  0
   21.9270  -14.4880   24.2110 C   0  0  0  0  0  0  0  0  0  0  0  0
   22.7434  -14.9736   23.6971 H   0  0  0  0  0  0  0  0  0  0  0  0
   22.1700  -13.3320   24.9420 C   0  0  0  0  0  0  0  0  0  0  0  0
   23.1684  -12.9236   24.9957 H   0  0  0  0  0  0  0  0  0  0  0  0
   21.1090  -12.6960   25.6120 C   0  0  0  0  0  0  0  0  0  0  0  0
   21.2819  -11.7969   26.1848 H   0  0  0  0  0  0  0  0  0  0  0  0
   19.8250  -13.2480   25.5240 C   0  0  0  0  0  0  0  0  0  0  0  0
   19.0080  -12.7616   26.0362 H   0  0  0  0  0  0  0  0  0  0  0  0
   19.2710  -13.9990   20.9150 C   0  0  0  0  0  0  0  0  0  0  0  0
   18.7778  -14.6306   20.1761 H   0  0  0  0  0  0  0  0  0  0  0  0
   19.8783  -14.6183   21.5750 H   0  0  0  0  0  0  0  0  0  0  0  0
   18.3160  -13.1690   21.6590 N   0  0  0  0  0  0  0  0  0  0  0  0
   20.0910  -12.8710   20.2600 C   0  0  0  0  0  0  0  0  0  0  0  0
   20.6325  -13.2354   19.3870 H   0  0  0  0  0  0  0  0  0  0  0  0
   20.7954  -12.4354   20.9687 H   0  0  0  0  0  0  0  0  0  0  0  0
   19.0090  -11.8520   19.8560 C   0  0  0  0  0  0  0  0  0  0  0  0
   19.4410  -10.8611   19.7157 H   0  0  0  0  0  0  0  0  0  0  0  0
   18.5056  -12.1618   18.9402 H   0  0  0  0  0  0  0  0  0  0  0  0
   13.4780   -9.3430   22.2670 C   0  0  0  0  0  0  0  0  0  0  0  0
   14.1322   -8.5144   22.1618 H   0  0  0  0  0  0  0  0  0  0  0  0
   12.5299   -9.3764   23.2952 C   0  0  0  0  0  0  0  0  0  0  0  0
   11.6525  -10.4528   23.4530 C   0  0  0  0  0  0  0  0  0  0  0  0
   10.9325  -10.4652   24.2332 H   0  0  0  0  0  0  0  0  0  0  0  0
   11.7402  -11.5166   22.5631 C   0  0  0  0  0  0  0  0  0  0  0  0
   11.0850  -12.3455   22.6610 H   0  0  0  0  0  0  0  0  0  0  0  0
   16.4240  -15.8630   23.1000 N   0  3  0  0  0  0  0  0  0  0  0  0
   15.6689  -15.3943   23.5797 H   0  0  0  0  0  0  0  0  0  0  0  0
   16.5562  -16.7821   23.4973 H   0  0  0  0  0  0  0  0  0  0  0  0
   16.1977  -15.9495   22.1195 H   0  0  0  0  0  0  0  0  0  0  0  0
   16.1160  -12.7330   19.9940 O   0  0  0  0  0  0  0  0  0  0  0  0
   16.5480  -13.0580   23.0520 O   0  0  0  0  0  0  0  0  0  0  0  0
   12.4594   -8.2579   24.2309 N   0  3  0  0  0  0  0  0  0  0  0  0
   11.6576   -8.2679   25.1507 O   0  5  0  0  0  0  0  0  0  0  0  0
   13.2048   -7.2993   24.1052 O   0  0  0  0  0  0  0  0  0  0  0  0
  1  2  1  0  0  0  0
  1  3  1  0  0  0  0
  1 44  2  0  0  0  0
  3  4  1  0  0  0  0
  3 39  2  0  0  0  0
  4  5  1  0  0  0  0
  4  6  1  0  0  0  0
  4 17  1  0  0  0  0
  7  8  1  0  0  0  0
  7 17  1  0  0  0  0
  7 50  2  0  0  0  0
  8  9  1  0  0  0  0
  8 32  1  0  0  0  0
  8 36  1  0  0  0  0
 10 11  1  0  0  0  0
 10 32  1  0  0  0  0
 10 51  2  0  0  0  0
 11 12  1  0  0  0  0
 11 13  1  0  0  0  0
 11 46  1  0  0  0  0
 13 14  1  0  0  0  0
 13 15  1  0  0  0  0
 13 16  1  0  0  0  0
 16 19  1  0  0  0  0
 16 27  2  0  0  0  0
 17 18  1  0  0  0  0
 19 20  1  0  0  0  0
 19 21  2  0  0  0  0
 21 22  1  0  0  0  0
 21 23  1  0  0  0  0
 23 24  1  0  0  0  0
 23 25  2  0  0  0  0
 25 26  1  0  0  0  0
 25 27  1  0  0  0  0
 27 28  1  0  0  0  0
 29 30  1  0  0  0  0
 29 31  1  0  0  0  0
 29 32  1  0  0  0  0
 29 33  1  0  0  0  0
 33 34  1  0  0  0  0
 33 35  1  0  0  0  0
 33 36  1  0  0  0  0
 36 37  1  0  0  0  0
 36 38  1  0  0  0  0
 39 40  1  0  0  0  0
 39 41  1  0  0  0  0
 41 42  2  0  0  0  0
 41 52  1  0  0  0  0
 42 43  1  0  0  0  0
 42 44  1  0  0  0  0
 44 45  1  0  0  0  0
 46 47  1  0  0  0  0
 46 48  1  0  0  0  0
 46 49  1  0  0  0  0
 52 53  1  0  0  0  0
 52 54  2  0  0  0  0
M  CHG  1  46   1
M  CHG  1  52   1
M  CHG  1  53  -1
M  END
$$$$
thrombin_baum_10_3a_2zf0.H
  MOE2024           3D
thrombin_baum_10_3a_2zf0
 55 57  0  0  1  0  0  0  0  0999 V2000
   18.0140  -14.6630   24.7000 C   0  0  0  0  0  0  0  0  0  0  0  0
   17.9720  -15.6550   25.1497 H   0  0  0  0  0  0  0  0  0  0  0  0
   17.3811  -13.9801   25.2667 H   0  0  0  0  0  0  0  0  0  0  0  0
   16.2570  -15.5260   23.1720 N   0  3  0  0  0  0  0  0  0  0  0  0
   16.4165  -16.4489   23.5500 H   0  0  0  0  0  0  0  0  0  0  0  0
   15.9666  -15.6027   22.2077 H   0  0  0  0  0  0  0  0  0  0  0  0
   15.5345  -15.0640   23.7055 H   0  0  0  0  0  0  0  0  0  0  0  0
   16.3480  -12.6830   23.0750 O   0  0  0  0  0  0  0  0  0  0  0  0
   17.5000  -14.7430   23.2490 C   0  0  3  0  0  0  0  0  0  0  0  0
   18.2489  -15.2543   22.6442 H   0  0  0  0  0  0  0  0  0  0  0  0
   18.1930  -12.9330   21.8380 N   0  0  0  0  0  0  0  0  0  0  0  0
   16.0360  -12.4400   19.8500 O   0  0  0  0  0  0  0  0  0  0  0  0
   17.3000  -13.3520   22.6910 C   0  0  0  0  0  0  0  0  0  0  0  0
   15.9110  -10.3740   20.9350 N   0  0  0  0  0  0  0  0  0  0  0  0
   16.2901   -9.7298   21.6143 H   0  0  0  0  0  0  0  0  0  0  0  0
   19.0740  -13.8870   21.1700 C   0  0  0  0  0  0  0  0  0  0  0  0
   18.5064  -14.5704   20.5385 H   0  0  0  0  0  0  0  0  0  0  0  0
   19.6549  -14.4588   21.8937 H   0  0  0  0  0  0  0  0  0  0  0  0
   19.9900  -12.9680   20.3180 C   0  0  0  0  0  0  0  0  0  0  0  0
   20.3803  -13.5000   19.4504 H   0  0  0  0  0  0  0  0  0  0  0  0
   20.8193  -12.5831   20.9114 H   0  0  0  0  0  0  0  0  0  0  0  0
   19.0350  -11.8240   19.8870 C   0  0  0  0  0  0  0  0  0  0  0  0
   18.5624  -12.0531   18.9319 H   0  0  0  0  0  0  0  0  0  0  0  0
   19.5729  -10.8792   19.8088 H   0  0  0  0  0  0  0  0  0  0  0  0
   17.9870  -11.7660   21.0170 C   0  0  3  0  0  0  0  0  0  0  0  0
   18.1286  -10.8697   21.6209 H   0  0  0  0  0  0  0  0  0  0  0  0
   16.5800  -11.5870   20.5260 C   0  0  0  0  0  0  0  0  0  0  0  0
   14.6470  -10.1790   20.2730 C   0  0  0  0  0  0  0  0  0  0  0  0
   14.4944  -10.9639   19.5322 H   0  0  0  0  0  0  0  0  0  0  0  0
   14.6357   -9.2069   19.7800 H   0  0  0  0  0  0  0  0  0  0  0  0
   13.5400  -10.2380   21.3220 C   0  0  0  0  0  0  0  0  0  0  0  0
   13.3970   -9.2110   22.2610 C   0  0  0  0  0  0  0  0  0  0  0  0
   14.0729   -8.3688   22.2465 H   0  0  0  0  0  0  0  0  0  0  0  0
   12.3790   -9.2740   23.2190 C   0  0  0  0  0  0  0  0  0  0  0  0
   12.2060   -8.1660   24.2510 C   0  0  0  0  0  0  0  0  0  0  0  0
   12.9657   -7.4005   24.0930 H   0  0  0  0  0  0  0  0  0  0  0  0
   12.3127   -8.5825   25.2526 H   0  0  0  0  0  0  0  0  0  0  0  0
   11.2159   -7.7226   24.1455 H   0  0  0  0  0  0  0  0  0  0  0  0
   11.5180  -10.3670   23.2230 C   0  0  0  0  0  0  0  0  0  0  0  0
   10.7312  -10.4179   23.9610 H   0  0  0  0  0  0  0  0  0  0  0  0
   11.6510  -11.4030   22.2890 C   0  0  0  0  0  0  0  0  0  0  0  0
   10.9754  -12.2455   22.3051 H   0  0  0  0  0  0  0  0  0  0  0  0
   12.6700  -11.3300   21.3370 C   0  0  0  0  0  0  0  0  0  0  0  0
   12.7855  -12.1205   20.6102 H   0  0  0  0  0  0  0  0  0  0  0  0
   19.4550  -14.1570   24.7350 C   0  0  0  0  0  0  0  0  0  0  0  0
   20.4590  -14.8380   24.0410 C   0  0  0  0  0  0  0  0  0  0  0  0
   20.2154  -15.7267   23.4777 H   0  0  0  0  0  0  0  0  0  0  0  0
   21.7790  -14.3730   24.0730 C   0  0  0  0  0  0  0  0  0  0  0  0
   22.5468  -14.9047   23.5307 H   0  0  0  0  0  0  0  0  0  0  0  0
   22.1120  -13.2290   24.7990 C   0  0  0  0  0  0  0  0  0  0  0  0
   23.1315  -12.8736   24.8252 H   0  0  0  0  0  0  0  0  0  0  0  0
   21.1040  -12.5490   25.4930 C   0  0  0  0  0  0  0  0  0  0  0  0
   21.3476  -11.6611   26.0576 H   0  0  0  0  0  0  0  0  0  0  0  0
   19.7820  -13.0110   25.4610 C   0  0  0  0  0  0  0  0  0  0  0  0
   19.0128  -12.4782   26.0003 H   0  0  0  0  0  0  0  0  0  0  0  0
  1  2  1  0  0  0  0
  1  3  1  0  0  0  0
  1  9  1  0  0  0  0
  1 45  1  0  0  0  0
  4  5  1  0  0  0  0
  4  6  1  0  0  0  0
  4  7  1  0  0  0  0
  4  9  1  0  0  0  0
  8 13  2  0  0  0  0
  9 10  1  0  0  0  0
  9 13  1  0  0  0  0
 11 13  1  0  0  0  0
 11 16  1  0  0  0  0
 11 25  1  0  0  0  0
 12 27  2  0  0  0  0
 14 15  1  0  0  0  0
 14 27  1  0  0  0  0
 14 28  1  0  0  0  0
 16 17  1  0  0  0  0
 16 18  1  0  0  0  0
 16 19  1  0  0  0  0
 19 20  1  0  0  0  0
 19 21  1  0  0  0  0
 19 22  1  0  0  0  0
 22 23  1  0  0  0  0
 22 24  1  0  0  0  0
 22 25  1  0  0  0  0
 25 26  1  0  0  0  0
 25 27  1  0  0  0  0
 28 29  1  0  0  0  0
 28 30  1  0  0  0  0
 28 31  1  0  0  0  0
 31 32  1  0  0  0  0
 31 43  2  0  0  0  0
 32 33  1  0  0  0  0
 32 34  2  0  0  0  0
 34 35  1  0  0  0  0
 34 39  1  0  0  0  0
 35 36  1  0  0  0  0
 35 37  1  0  0  0  0
 35 38  1  0  0  0  0
 39 40  1  0  0  0  0
 39 41  2  0  0  0  0
 41 42  1  0  0  0  0
 41 43  1  0  0  0  0
 43 44  1  0  0  0  0
 45 46  1  0  0  0  0
 45 54  2  0  0  0  0
 46 47  1  0  0  0  0
 46 48  2  0  0  0  0
 48 49  1  0  0  0  0
 48 50  1  0  0  0  0
 50 51  1  0  0  0  0
 50 52  2  0  0  0  0
 52 53  1  0  0  0  0
 52 54  1  0  0  0  0
 54 55  1  0  0  0  0
M  CHG  1   4   1
M  END
$$$$
thrombin_baum_11_3b.H
  MOE2024           3D
thrombin_baum_11_3b
 58 60  0  0  1  0  0  0  0  0999 V2000
   12.6891  -11.4969   21.5403 C   0  0  0  0  0  0  0  0  0  0  0  0
   12.7459  -12.3245   20.8803 H   0  0  0  0  0  0  0  0  0  0  0  0
   13.5600  -10.4150   21.3790 C   0  0  0  0  0  0  0  0  0  0  0  0
   14.5810  -10.4600   20.2430 C   0  0  0  0  0  0  0  0  0  0  0  0
   14.5553   -9.5255   19.6825 H   0  0  0  0  0  0  0  0  0  0  0  0
   14.3570  -11.2911   19.5742 H   0  0  0  0  0  0  0  0  0  0  0  0
   16.5910  -11.7710   20.5870 C   0  0  0  0  0  0  0  0  0  0  0  0
   18.0270  -11.8630   21.0590 C   0  0  3  0  0  0  0  0  0  0  0  0
   18.1477  -11.0264   21.7472 H   0  0  0  0  0  0  0  0  0  0  0  0
   17.5180  -13.7090   22.6160 C   0  0  0  0  0  0  0  0  0  0  0  0
   17.6800  -15.0690   23.2530 C   0  0  3  0  0  0  0  0  0  0  0  0
   18.4787  -15.5934   22.7283 H   0  0  0  0  0  0  0  0  0  0  0  0
   18.1350  -14.9750   24.7300 C   0  0  0  0  0  0  0  0  0  0  0  0
   18.1127  -15.9670   25.1813 H   0  0  0  0  0  0  0  0  0  0  0  0
   17.4635  -14.3123   25.2759 H   0  0  0  0  0  0  0  0  0  0  0  0
   19.5710  -14.4150   24.7890 C   0  0  0  0  0  0  0  0  0  0  0  0
   15.9000  -10.6450   20.8440 N   0  0  0  0  0  0  0  0  0  0  0  0
   16.2896   -9.9344   21.4468 H   0  0  0  0  0  0  0  0  0  0  0  0
   20.6360  -15.0350   24.1300 C   0  0  0  0  0  0  0  0  0  0  0  0
   20.4662  -15.9353   23.5581 H   0  0  0  0  0  0  0  0  0  0  0  0
   21.9270  -14.4880   24.2110 C   0  0  0  0  0  0  0  0  0  0  0  0
   22.7434  -14.9736   23.6971 H   0  0  0  0  0  0  0  0  0  0  0  0
   22.1700  -13.3320   24.9420 C   0  0  0  0  0  0  0  0  0  0  0  0
   23.1684  -12.9236   24.9957 H   0  0  0  0  0  0  0  0  0  0  0  0
   21.1090  -12.6960   25.6120 C   0  0  0  0  0  0  0  0  0  0  0  0
   21.2819  -11.7969   26.1848 H   0  0  0  0  0  0  0  0  0  0  0  0
   19.8250  -13.2480   25.5240 C   0  0  0  0  0  0  0  0  0  0  0  0
   19.0080  -12.7616   26.0362 H   0  0  0  0  0  0  0  0  0  0  0  0
   19.2710  -13.9990   20.9150 C   0  0  0  0  0  0  0  0  0  0  0  0
   18.7778  -14.6306   20.1761 H   0  0  0  0  0  0  0  0  0  0  0  0
   19.8783  -14.6183   21.5750 H   0  0  0  0  0  0  0  0  0  0  0  0
   18.3160  -13.1690   21.6590 N   0  0  0  0  0  0  0  0  0  0  0  0
   20.0910  -12.8710   20.2600 C   0  0  0  0  0  0  0  0  0  0  0  0
   20.6325  -13.2354   19.3870 H   0  0  0  0  0  0  0  0  0  0  0  0
   20.7954  -12.4354   20.9687 H   0  0  0  0  0  0  0  0  0  0  0  0
   19.0090  -11.8520   19.8560 C   0  0  0  0  0  0  0  0  0  0  0  0
   19.4410  -10.8611   19.7157 H   0  0  0  0  0  0  0  0  0  0  0  0
   18.5056  -12.1618   18.9402 H   0  0  0  0  0  0  0  0  0  0  0  0
   13.4800   -9.3288   22.2491 C   0  0  0  0  0  0  0  0  0  0  0  0
   14.1354   -8.5058   22.1270 H   0  0  0  0  0  0  0  0  0  0  0  0
   12.5410   -9.3167   23.2792 C   0  0  0  0  0  0  0  0  0  0  0  0
   12.4572   -8.1331   24.2225 C   0  0  0  0  0  0  0  0  0  0  0  0
   13.4416   -7.6815   24.3536 H   0  0  0  0  0  0  0  0  0  0  0  0
   12.0748   -8.4478   25.1947 H   0  0  0  0  0  0  0  0  0  0  0  0
   11.4954   -7.1316   23.5735 C   0  0  0  0  0  0  0  0  0  0  0  0
   11.3932   -6.2551   24.2135 H   0  0  0  0  0  0  0  0  0  0  0  0
   10.5158   -7.5923   23.4388 H   0  0  0  0  0  0  0  0  0  0  0  0
   11.8804   -6.8215   22.6013 H   0  0  0  0  0  0  0  0  0  0  0  0
   11.6735  -10.3976   23.4291 C   0  0  0  0  0  0  0  0  0  0  0  0
   10.9517  -10.3936   24.2048 H   0  0  0  0  0  0  0  0  0  0  0  0
   11.7469  -11.4843   22.5631 C   0  0  0  0  0  0  0  0  0  0  0  0
   11.0828  -12.3013   22.6823 H   0  0  0  0  0  0  0  0  0  0  0  0
   16.4240  -15.8630   23.1000 N   0  3  0  0  0  0  0  0  0  0  0  0
   15.6689  -15.3943   23.5797 H   0  0  0  0  0  0  0  0  0  0  0  0
   16.5562  -16.7821   23.4973 H   0  0  0  0  0  0  0  0  0  0  0  0
   16.1977  -15.9495   22.1195 H   0  0  0  0  0  0  0  0  0  0  0  0
   16.1160  -12.7330   19.9940 O   0  0  0  0  0  0  0  0  0  0  0  0
   16.5480  -13.0580   23.0520 O   0  0  0  0  0  0  0  0  0  0  0  0
  1  2  1  0  0  0  0
  1  3  1  0  0  0  0
  1 51  2  0  0  0  0
  3  4  1  0  0  0  0
  3 39  2  0  0  0  0
  4  5  1  0  0  0  0
  4  6  1  0  0  0  0
  4 17  1  0  0  0  0
  7  8  1  0  0  0  0
  7 17  1  0  0  0  0
  7 57  2  0  0  0  0
  8  9  1  0  0  0  0
  8 32  1  0  0  0  0
  8 36  1  0  0  0  0
 10 11  1  0  0  0  0
 10 32  1  0  0  0  0
 10 58  2  0  0  0  0
 11 12  1  0  0  0  0
 11 13  1  0  0  0  0
 11 53  1  0  0  0  0
 13 14  1  0  0  0  0
 13 15  1  0  0  0  0
 13 16  1  0  0  0  0
 16 19  1  0  0  0  0
 16 27  2  0  0  0  0
 17 18  1  0  0  0  0
 19 20  1  0  0  0  0
 19 21  2  0  0  0  0
 21 22  1  0  0  0  0
 21 23  1  0  0  0  0
 23 24  1  0  0  0  0
 23 25  2  0  0  0  0
 25 26  1  0  0  0  0
 25 27  1  0  0  0  0
 27 28  1  0  0  0  0
 29 30  1  0  0  0  0
 29 31  1  0  0  0  0
 29 32  1  0  0  0  0
 29 33  1  0  0  0  0
 33 34  1  0  0  0  0
 33 35  1  0  0  0  0
 33 36  1  0  0  0  0
 36 37  1  0  0  0  0
 36 38  1  0  0  0  0
 39 40  1  0  0  0  0
 39 41  1  0  0  0  0
 41 42  1  0  0  0  0
 41 49  2  0  0  0  0
 42 43  1  0  0  0  0
 42 44  1  0  0  0  0
 42 45  1  0  0  0  0
 45 46  1  0  0  0  0
 45 47  1  0  0  0  0
 45 48  1  0  0  0  0
 49 50  1  0  0  0  0
 49 51  1  0  0  0  0
 51 52  1  0  0  0  0
 53 54  1  0  0  0  0
 53 55  1  0  0  0  0
 53 56  1  0  0  0  0
M  CHG  1  53   1
M  END
$$$$
thrombin_baum_12_3c.H
  MOE2024           3D
thrombin_baum_12_3c
 61 63  0  0  1  0  0  0  0  0999 V2000
   12.6891  -11.4969   21.5403 C   0  0  0  0  0  0  0  0  0  0  0  0
   12.7459  -12.3245   20.8803 H   0  0  0  0  0  0  0  0  0  0  0  0
   13.5600  -10.4150   21.3790 C   0  0  0  0  0  0  0  0  0  0  0  0
   14.5810  -10.4600   20.2430 C   0  0  0  0  0  0  0  0  0  0  0  0
   14.5553   -9.5255   19.6825 H   0  0  0  0  0  0  0  0  0  0  0  0
   14.3570  -11.2911   19.5742 H   0  0  0  0  0  0  0  0  0  0  0  0
   16.5910  -11.7710   20.5870 C   0  0  0  0  0  0  0  0  0  0  0  0
   18.0270  -11.8630   21.0590 C   0  0  3  0  0  0  0  0  0  0  0  0
   18.1477  -11.0264   21.7472 H   0  0  0  0  0  0  0  0  0  0  0  0
   17.5180  -13.7090   22.6160 C   0  0  0  0  0  0  0  0  0  0  0  0
   17.6800  -15.0690   23.2530 C   0  0  3  0  0  0  0  0  0  0  0  0
   18.4787  -15.5934   22.7283 H   0  0  0  0  0  0  0  0  0  0  0  0
   18.1350  -14.9750   24.7300 C   0  0  0  0  0  0  0  0  0  0  0  0
   18.1127  -15.9670   25.1813 H   0  0  0  0  0  0  0  0  0  0  0  0
   17.4635  -14.3123   25.2759 H   0  0  0  0  0  0  0  0  0  0  0  0
   19.5710  -14.4150   24.7890 C   0  0  0  0  0  0  0  0  0  0  0  0
   15.9000  -10.6450   20.8440 N   0  0  0  0  0  0  0  0  0  0  0  0
   16.2896   -9.9344   21.4468 H   0  0  0  0  0  0  0  0  0  0  0  0
   20.6360  -15.0350   24.1300 C   0  0  0  0  0  0  0  0  0  0  0  0
   20.4662  -15.9353   23.5581 H   0  0  0  0  0  0  0  0  0  0  0  0
   21.9270  -14.4880   24.2110 C   0  0  0  0  0  0  0  0  0  0  0  0
   22.7434  -14.9736   23.6971 H   0  0  0  0  0  0  0  0  0  0  0  0
   22.1700  -13.3320   24.9420 C   0  0  0  0  0  0  0  0  0  0  0  0
   23.1684  -12.9236   24.9957 H   0  0  0  0  0  0  0  0  0  0  0  0
   21.1090  -12.6960   25.6120 C   0  0  0  0  0  0  0  0  0  0  0  0
   21.2819  -11.7969   26.1848 H   0  0  0  0  0  0  0  0  0  0  0  0
   19.8250  -13.2480   25.5240 C   0  0  0  0  0  0  0  0  0  0  0  0
   19.0080  -12.7616   26.0362 H   0  0  0  0  0  0  0  0  0  0  0  0
   19.2710  -13.9990   20.9150 C   0  0  0  0  0  0  0  0  0  0  0  0
   18.7778  -14.6306   20.1761 H   0  0  0  0  0  0  0  0  0  0  0  0
   19.8783  -14.6183   21.5750 H   0  0  0  0  0  0  0  0  0  0  0  0
   18.3160  -13.1690   21.6590 N   0  0  0  0  0  0  0  0  0  0  0  0
   20.0910  -12.8710   20.2600 C   0  0  0  0  0  0  0  0  0  0  0  0
   20.6325  -13.2354   19.3870 H   0  0  0  0  0  0  0  0  0  0  0  0
   20.7954  -12.4354   20.9687 H   0  0  0  0  0  0  0  0  0  0  0  0
   19.0090  -11.8520   19.8560 C   0  0  0  0  0  0  0  0  0  0  0  0
   19.4410  -10.8611   19.7157 H   0  0  0  0  0  0  0  0  0  0  0  0
   18.5056  -12.1618   18.9402 H   0  0  0  0  0  0  0  0  0  0  0  0
   13.4780   -9.3274   22.2468 C   0  0  0  0  0  0  0  0  0  0  0  0
   14.1369   -8.5090   22.1204 H   0  0  0  0  0  0  0  0  0  0  0  0
   12.5349   -9.3088   23.2774 C   0  0  0  0  0  0  0  0  0  0  0  0
   12.4250   -8.1326   24.2402 C   0  0  0  0  0  0  0  0  0  0  0  0
   13.7543   -7.9697   24.9882 C   0  0  0  0  0  0  0  0  0  0  0  0
   13.6641   -7.1734   25.7270 H   0  0  0  0  0  0  0  0  0  0  0  0
   14.5581   -7.7208   24.2965 H   0  0  0  0  0  0  0  0  0  0  0  0
   13.9993   -8.9014   25.4993 H   0  0  0  0  0  0  0  0  0  0  0  0
   11.6387   -8.3044   24.9782 H   0  0  0  0  0  0  0  0  0  0  0  0
   12.0684   -6.8688   23.4478 C   0  0  0  0  0  0  0  0  0  0  0  0
   11.9291   -6.0330   24.1335 H   0  0  0  0  0  0  0  0  0  0  0  0
   11.1412   -7.0349   22.8982 H   0  0  0  0  0  0  0  0  0  0  0  0
   12.8603   -6.6200   22.7420 H   0  0  0  0  0  0  0  0  0  0  0  0
   11.6712  -10.3945   23.4254 C   0  0  0  0  0  0  0  0  0  0  0  0
   10.9482  -10.3950   24.2000 H   0  0  0  0  0  0  0  0  0  0  0  0
   11.7464  -11.4827   22.5616 C   0  0  0  0  0  0  0  0  0  0  0  0
   11.0826  -12.2999   22.6815 H   0  0  0  0  0  0  0  0  0  0  0  0
   16.4240  -15.8630   23.1000 N   0  3  0  0  0  0  0  0  0  0  0  0
   15.6689  -15.3943   23.5797 H   0  0  0  0  0  0  0  0  0  0  0  0
   16.5562  -16.7821   23.4973 H   0  0  0  0  0  0  0  0  0  0  0  0
   16.1977  -15.9495   22.1195 H   0  0  0  0  0  0  0  0  0  0  0  0
   16.1160  -12.7330   19.9940 O   0  0  0  0  0  0  0  0  0  0  0  0
   16.5480  -13.0580   23.0520 O   0  0  0  0  0  0  0  0  0  0  0  0
  1  2  1  0  0  0  0
  1  3  1  0  0  0  0
  1 54  2  0  0  0  0
  3  4  1  0  0  0  0
  3 39  2  0  0  0  0
  4  5  1  0  0  0  0
  4  6  1  0  0  0  0
  4 17  1  0  0  0  0
  7  8  1  0  0  0  0
  7 17  1  0  0  0  0
  7 60  2  0  0  0  0
  8  9  1  0  0  0  0
  8 32  1  0  0  0  0
  8 36  1  0  0  0  0
 10 11  1  0  0  0  0
 10 32  1  0  0  0  0
 10 61  2  0  0  0  0
 11 12  1  0  0  0  0
 11 13  1  0  0  0  0
 11 56  1  0  0  0  0
 13 14  1  0  0  0  0
 13 15  1  0  0  0  0
 13 16  1  0  0  0  0
 16 19  1  0  0  0  0
 16 27  2  0  0  0  0
 17 18  1  0  0  0  0
 19 20  1  0  0  0  0
 19 21  2  0  0  0  0
 21 22  1  0  0  0  0
 21 23  1  0  0  0  0
 23 24  1  0  0  0  0
 23 25  2  0  0  0  0
 25 26  1  0  0  0  0
 25 27  1  0  0  0  0
 27 28  1  0  0  0  0
 29 30  1  0  0  0  0
 29 31  1  0  0  0  0
 29 32  1  0  0  0  0
 29 33  1  0  0  0  0
 33 34  1  0  0  0  0
 33 35  1  0  0  0  0
 33 36  1  0  0  0  0
 36 37  1  0  0  0  0
 36 38  1  0  0  0  0
 39 40  1  0  0  0  0
 39 41  1  0  0  0  0
 41 42  1  0  0  0  0
 41 52  2  0  0  0  0
 42 43  1  0  0  0  0
 42 47  1  0  0  0  0
 42 48  1  0  0  0  0
 43 44  1  0  0  0  0
 43 45  1  0  0  0  0
 43 46  1  0  0  0  0
 48 49  1  0  0  0  0
 48 50  1  0  0  0  0
 48 51  1  0  0  0  0
 52 53  1  0  0  0  0
 52 54  1  0  0  0  0
 54 55  1  0  0  0  0
 56 57  1  0  0  0  0
 56 58  1  0  0  0  0
 56 59  1  0  0  0  0
M  CHG  1  56   1
M  END
$$$$
thrombin_baum_13_3d.H
  MOE2024           3D
thrombin_baum_13_3d
 64 66  0  0  1  0  0  0  0  0999 V2000
   12.6891  -11.4969   21.5403 C   0  0  0  0  0  0  0  0  0  0  0  0
   12.7459  -12.3245   20.8803 H   0  0  0  0  0  0  0  0  0  0  0  0
   13.5600  -10.4150   21.3790 C   0  0  0  0  0  0  0  0  0  0  0  0
   14.5810  -10.4600   20.2430 C   0  0  0  0  0  0  0  0  0  0  0  0
   14.5553   -9.5255   19.6825 H   0  0  0  0  0  0  0  0  0  0  0  0
   14.3570  -11.2911   19.5742 H   0  0  0  0  0  0  0  0  0  0  0  0
   16.5910  -11.7710   20.5870 C   0  0  0  0  0  0  0  0  0  0  0  0
   18.0270  -11.8630   21.0590 C   0  0  3  0  0  0  0  0  0  0  0  0
   18.1477  -11.0264   21.7472 H   0  0  0  0  0  0  0  0  0  0  0  0
   17.5180  -13.7090   22.6160 C   0  0  0  0  0  0  0  0  0  0  0  0
   17.6800  -15.0690   23.2530 C   0  0  3  0  0  0  0  0  0  0  0  0
   18.4787  -15.5934   22.7283 H   0  0  0  0  0  0  0  0  0  0  0  0
   18.1350  -14.9750   24.7300 C   0  0  0  0  0  0  0  0  0  0  0  0
   18.1127  -15.9670   25.1813 H   0  0  0  0  0  0  0  0  0  0  0  0
   17.4635  -14.3123   25.2759 H   0  0  0  0  0  0  0  0  0  0  0  0
   19.5710  -14.4150   24.7890 C   0  0  0  0  0  0  0  0  0  0  0  0
   15.9000  -10.6450   20.8440 N   0  0  0  0  0  0  0  0  0  0  0  0
   16.2896   -9.9344   21.4468 H   0  0  0  0  0  0  0  0  0  0  0  0
   20.6360  -15.0350   24.1300 C   0  0  0  0  0  0  0  0  0  0  0  0
   20.4662  -15.9353   23.5581 H   0  0  0  0  0  0  0  0  0  0  0  0
   21.9270  -14.4880   24.2110 C   0  0  0  0  0  0  0  0  0  0  0  0
   22.7434  -14.9736   23.6971 H   0  0  0  0  0  0  0  0  0  0  0  0
   22.1700  -13.3320   24.9420 C   0  0  0  0  0  0  0  0  0  0  0  0
   23.1684  -12.9236   24.9957 H   0  0  0  0  0  0  0  0  0  0  0  0
   21.1090  -12.6960   25.6120 C   0  0  0  0  0  0  0  0  0  0  0  0
   21.2819  -11.7969   26.1848 H   0  0  0  0  0  0  0  0  0  0  0  0
   19.8250  -13.2480   25.5240 C   0  0  0  0  0  0  0  0  0  0  0  0
   19.0080  -12.7616   26.0362 H   0  0  0  0  0  0  0  0  0  0  0  0
   19.2710  -13.9990   20.9150 C   0  0  0  0  0  0  0  0  0  0  0  0
   18.7778  -14.6306   20.1761 H   0  0  0  0  0  0  0  0  0  0  0  0
   19.8783  -14.6183   21.5750 H   0  0  0  0  0  0  0  0  0  0  0  0
   18.3160  -13.1690   21.6590 N   0  0  0  0  0  0  0  0  0  0  0  0
   20.0910  -12.8710   20.2600 C   0  0  0  0  0  0  0  0  0  0  0  0
   20.6325  -13.2354   19.3870 H   0  0  0  0  0  0  0  0  0  0  0  0
   20.7954  -12.4354   20.9687 H   0  0  0  0  0  0  0  0  0  0  0  0
   19.0090  -11.8520   19.8560 C   0  0  0  0  0  0  0  0  0  0  0  0
   19.4410  -10.8611   19.7157 H   0  0  0  0  0  0  0  0  0  0  0  0
   18.5056  -12.1618   18.9402 H   0  0  0  0  0  0  0  0  0  0  0  0
   13.4819   -9.3300   22.2498 C   0  0  0  0  0  0  0  0  0  0  0  0
   14.1444   -8.5159   22.1156 H   0  0  0  0  0  0  0  0  0  0  0  0
   12.5469   -9.3026   23.2907 C   0  0  0  0  0  0  0  0  0  0  0  0
   12.5044   -8.0816   24.2308 C   0  0  0  0  0  0  0  0  0  0  0  0
   13.8662   -7.9088   24.9238 C   0  0  0  0  0  0  0  0  0  0  0  0
   13.8323   -7.0725   25.6225 H   0  0  0  0  0  0  0  0  0  0  0  0
   14.6491   -7.7139   24.1925 H   0  0  0  0  0  0  0  0  0  0  0  0
   14.1165   -8.8193   25.4697 H   0  0  0  0  0  0  0  0  0  0  0  0
   11.4466   -8.2059   25.3435 C   0  0  0  0  0  0  0  0  0  0  0  0
   11.4640   -7.3226   25.9827 H   0  0  0  0  0  0  0  0  0  0  0  0
   11.6529   -9.0812   25.9607 H   0  0  0  0  0  0  0  0  0  0  0  0
   10.4510   -8.2927   24.9070 H   0  0  0  0  0  0  0  0  0  0  0  0
   12.1694   -6.8177   23.4229 C   0  0  0  0  0  0  0  0  0  0  0  0
   12.1001   -5.9533   24.0838 H   0  0  0  0  0  0  0  0  0  0  0  0
   11.2157   -6.9531   22.9113 H   0  0  0  0  0  0  0  0  0  0  0  0
   12.9397   -6.6228   22.6779 H   0  0  0  0  0  0  0  0  0  0  0  0
   11.6809  -10.3955   23.4320 C   0  0  0  0  0  0  0  0  0  0  0  0
   10.9547  -10.4181   24.2004 H   0  0  0  0  0  0  0  0  0  0  0  0
   11.7516  -11.4811   22.5642 C   0  0  0  0  0  0  0  0  0  0  0  0
   11.0869  -12.2973   22.6851 H   0  0  0  0  0  0  0  0  0  0  0  0
   16.4240  -15.8630   23.1000 N   0  3  0  0  0  0  0  0  0  0  0  0
   15.6689  -15.3943   23.5797 H   0  0  0  0  0  0  0  0  0  0  0  0
   16.5562  -16.7821   23.4973 H   0  0  0  0  0  0  0  0  0  0  0  0
   16.1977  -15.9495   22.1195 H   0  0  0  0  0  0  0  0  0  0  0  0
   16.1160  -12.7330   19.9940 O   0  0  0  0  0  0  0  0  0  0  0  0
   16.5480  -13.0580   23.0520 O   0  0  0  0  0  0  0  0  0  0  0  0
  1  2  1  0  0  0  0
  1  3  1  0  0  0  0
  1 57  2  0  0  0  0
  3  4  1  0  0  0  0
  3 39  2  0  0  0  0
  4  5  1  0  0  0  0
  4  6  1  0  0  0  0
  4 17  1  0  0  0  0
  7  8  1  0  0  0  0
  7 17  1  0  0  0  0
  7 63  2  0  0  0  0
  8  9  1  0  0  0  0
  8 32  1  0  0  0  0
  8 36  1  0  0  0  0
 10 11  1  0  0  0  0
 10 32  1  0  0  0  0
 10 64  2  0  0  0  0
 11 12  1  0  0  0  0
 11 13  1  0  0  0  0
 11 59  1  0  0  0  0
 13 14  1  0  0  0  0
 13 15  1  0  0  0  0
 13 16  1  0  0  0  0
 16 19  1  0  0  0  0
 16 27  2  0  0  0  0
 17 18  1  0  0  0  0
 19 20  1  0  0  0  0
 19 21  2  0  0  0  0
 21 22  1  0  0  0  0
 21 23  1  0  0  0  0
 23 24  1  0  0  0  0
 23 25  2  0  0  0  0
 25 26  1  0  0  0  0
 25 27  1  0  0  0  0
 27 28  1  0  0  0  0
 29 30  1  0  0  0  0
 29 31  1  0  0  0  0
 29 32  1  0  0  0  0
 29 33  1  0  0  0  0
 33 34  1  0  0  0  0
 33 35  1  0  0  0  0
 33 36  1  0  0  0  0
 36 37  1  0  0  0  0
 36 38  1  0  0  0  0
 39 40  1  0  0  0  0
 39 41  1  0  0  0  0
 41 42  1  0  0  0  0
 41 55  2  0  0  0  0
 42 43  1  0  0  0  0
 42 47  1  0  0  0  0
 42 51  1  0  0  0  0
 43 44  1  0  0  0  0
 43 45  1  0  0  0  0
 43 46  1  0  0  0  0
 47 48  1  0  0  0  0
 47 49  1  0  0  0  0
 47 50  1  0  0  0  0
 51 52  1  0  0  0  0
 51 53  1  0  0  0  0
 51 54  1  0  0  0  0
 55 56  1  0  0  0  0
 55 57  1  0  0  0  0
 57 58  1  0  0  0  0
 59 60  1  0  0  0  0
 59 61  1  0  0  0  0
 59 62  1  0  0  0  0
M  CHG  1  59   1
M  END
$$$$
thrombin_baum_14_4_2zda.H
  MOE2024           3D
thrombin_baum_14_4_2zda
 58 60  0  0  1  0  0  0  0  0999 V2000
   18.3810  -12.0990   21.1990 C   0  0  3  0  0  0  0  0  0  0  0  0
   18.4683  -11.2678   21.8987 H   0  0  0  0  0  0  0  0  0  0  0  0
   18.5130  -13.4040   21.8000 N   0  0  0  0  0  0  0  0  0  0  0  0
   19.4730  -12.1720   20.0910 C   0  0  0  0  0  0  0  0  0  0  0  0
   19.8701  -11.1849   19.8543 H   0  0  0  0  0  0  0  0  0  0  0  0
   19.0913  -12.6375   19.1823 H   0  0  0  0  0  0  0  0  0  0  0  0
   20.5340  -13.0610   20.7830 C   0  0  0  0  0  0  0  0  0  0  0  0
   21.0844  -12.4955   21.5349 H   0  0  0  0  0  0  0  0  0  0  0  0
   21.2325  -13.4716   20.0539 H   0  0  0  0  0  0  0  0  0  0  0  0
   19.6960  -14.1880   21.4420 C   0  0  0  0  0  0  0  0  0  0  0  0
   19.4606  -14.9878   20.7399 H   0  0  0  0  0  0  0  0  0  0  0  0
   20.1903  -14.6075   22.3182 H   0  0  0  0  0  0  0  0  0  0  0  0
   17.6870  -15.1680   23.3960 C   0  0  3  0  0  0  0  0  0  0  0  0
   18.4164  -15.7499   22.8326 H   0  0  0  0  0  0  0  0  0  0  0  0
   19.6100  -14.5760   24.9350 C   0  0  0  0  0  0  0  0  0  0  0  0
   17.0340  -12.0140   20.5020 C   0  0  0  0  0  0  0  0  0  0  0  0
   20.6810  -15.3870   24.5470 C   0  0  0  0  0  0  0  0  0  0  0  0
   20.4968  -16.3907   24.1933 H   0  0  0  0  0  0  0  0  0  0  0  0
   21.9860  -14.9020   24.6160 C   0  0  0  0  0  0  0  0  0  0  0  0
   22.8065  -15.5356   24.3131 H   0  0  0  0  0  0  0  0  0  0  0  0
   22.2460  -13.6120   25.0700 C   0  0  0  0  0  0  0  0  0  0  0  0
   23.2594  -13.2420   25.1201 H   0  0  0  0  0  0  0  0  0  0  0  0
   21.1720  -12.8010   25.4610 C   0  0  0  0  0  0  0  0  0  0  0  0
   21.3544  -11.7980   25.8175 H   0  0  0  0  0  0  0  0  0  0  0  0
   19.8740  -13.2870   25.3900 C   0  0  0  0  0  0  0  0  0  0  0  0
   19.0535  -12.6536   25.6933 H   0  0  0  0  0  0  0  0  0  0  0  0
   16.3870  -15.8760   23.3200 N   0  3  0  0  0  0  0  0  0  0  0  0
   15.6904  -15.3571   23.8353 H   0  0  0  0  0  0  0  0  0  0  0  0
   16.4825  -16.7990   23.7187 H   0  0  0  0  0  0  0  0  0  0  0  0
   16.1023  -15.9543   22.3541 H   0  0  0  0  0  0  0  0  0  0  0  0
   17.6210  -13.8070   22.7500 C   0  0  0  0  0  0  0  0  0  0  0  0
   10.8590  -10.7400   23.9830 C   0  0  0  0  0  0  0  0  0  0  0  0
   16.5880  -12.9770   19.8920 O   0  0  0  0  0  0  0  0  0  0  0  0
   16.4180  -10.8100   20.5750 N   0  0  0  0  0  0  0  0  0  0  0  0
   16.7970  -10.0273   21.0887 H   0  0  0  0  0  0  0  0  0  0  0  0
   15.1400  -10.7460   19.8340 C   0  0  0  0  0  0  0  0  0  0  0  0
   15.0315  -11.6176   19.1886 H   0  0  0  0  0  0  0  0  0  0  0  0
   15.0962   -9.8394   19.2305 H   0  0  0  0  0  0  0  0  0  0  0  0
   14.0340  -10.7310   20.9050 C   0  0  0  0  0  0  0  0  0  0  0  0
   13.6110  -11.9270   21.4720 C   0  0  0  0  0  0  0  0  0  0  0  0
   14.0617  -12.8561   21.1558 H   0  0  0  0  0  0  0  0  0  0  0  0
   12.6130  -11.9420   22.4430 C   0  0  0  0  0  0  0  0  0  0  0  0
   12.2995  -12.8813   22.8740 H   0  0  0  0  0  0  0  0  0  0  0  0
   12.0130  -10.7510   22.8650 C   0  0  0  0  0  0  0  0  0  0  0  0
   12.4470   -9.5620   22.2880 C   0  0  0  0  0  0  0  0  0  0  0  0
   11.9978   -8.6313   22.6016 H   0  0  0  0  0  0  0  0  0  0  0  0
   13.4480   -9.5390   21.3140 C   0  0  0  0  0  0  0  0  0  0  0  0
   13.7644   -8.6012   20.8817 H   0  0  0  0  0  0  0  0  0  0  0  0
   16.7250  -13.0450   23.1010 O   0  0  0  0  0  0  0  0  0  0  0  0
   18.1780  -15.0780   24.8690 C   0  0  0  0  0  0  0  0  0  0  0  0
   18.1257  -16.0674   25.3234 H   0  0  0  0  0  0  0  0  0  0  0  0
   17.5338  -14.3914   25.4183 H   0  0  0  0  0  0  0  0  0  0  0  0
   10.5670   -9.6060   24.6040 N   0  3  0  0  0  0  0  0  0  0  0  0
    9.8427   -9.5876   25.3077 H   0  0  0  0  0  0  0  0  0  0  0  0
   11.0688   -8.7603   24.3735 H   0  0  0  0  0  0  0  0  0  0  0  0
   10.2100  -11.8440   24.2780 N   0  0  0  0  0  0  0  0  0  0  0  0
    9.4848  -11.8310   24.9809 H   0  0  0  0  0  0  0  0  0  0  0  0
   10.4364  -12.7055   23.8018 H   0  0  0  0  0  0  0  0  0  0  0  0
  1  2  1  0  0  0  0
  1  3  1  0  0  0  0
  1  4  1  0  0  0  0
  1 16  1  0  0  0  0
  3 10  1  0  0  0  0
  3 31  1  0  0  0  0
  4  5  1  0  0  0  0
  4  6  1  0  0  0  0
  4  7  1  0  0  0  0
  7  8  1  0  0  0  0
  7  9  1  0  0  0  0
  7 10  1  0  0  0  0
 10 11  1  0  0  0  0
 10 12  1  0  0  0  0
 13 14  1  0  0  0  0
 13 27  1  0  0  0  0
 13 31  1  0  0  0  0
 13 50  1  0  0  0  0
 15 17  1  0  0  0  0
 15 25  2  0  0  0  0
 15 50  1  0  0  0  0
 16 33  2  0  0  0  0
 16 34  1  0  0  0  0
 17 18  1  0  0  0  0
 17 19  2  0  0  0  0
 19 20  1  0  0  0  0
 19 21  1  0  0  0  0
 21 22  1  0  0  0  0
 21 23  2  0  0  0  0
 23 24  1  0  0  0  0
 23 25  1  0  0  0  0
 25 26  1  0  0  0  0
 27 28  1  0  0  0  0
 27 29  1  0  0  0  0
 27 30  1  0  0  0  0
 31 49  2  0  0  0  0
 32 44  1  0  0  0  0
 32 53  2  0  0  0  0
 32 56  1  0  0  0  0
 34 35  1  0  0  0  0
 34 36  1  0  0  0  0
 36 37  1  0  0  0  0
 36 38  1  0  0  0  0
 36 39  1  0  0  0  0
 39 40  1  0  0  0  0
 39 47  2  0  0  0  0
 40 41  1  0  0  0  0
 40 42  2  0  0  0  0
 42 43  1  0  0  0  0
 42 44  1  0  0  0  0
 44 45  2  0  0  0  0
 45 46  1  0  0  0  0
 45 47  1  0  0  0  0
 47 48  1  0  0  0  0
 50 51  1  0  0  0  0
 50 52  1  0  0  0  0
 53 54  1  0  0  0  0
 53 55  1  0  0  0  0
 56 57  1  0  0  0  0
 56 58  1  0  0  0  0
M  CHG  1  27   1
M  CHG  1  53   1
M  END
$$$$
thrombin_baum_15_5_2zff.H
  MOE2024           3D
thrombin_baum_15_5_2zff
 52 54  0  0  1  0  0  0  0  0999 V2000
   16.3900  -15.7830   23.1600 N   0  3  0  0  0  0  0  0  0  0  0  0
   16.0318  -15.8591   22.2187 H   0  0  0  0  0  0  0  0  0  0  0  0
   15.7134  -15.3082   23.7404 H   0  0  0  0  0  0  0  0  0  0  0  0
   16.5621  -16.7067   23.5304 H   0  0  0  0  0  0  0  0  0  0  0  0
   17.6570  -15.0120   23.1460 C   0  0  3  0  0  0  0  0  0  0  0  0
   18.3931  -15.5142   22.5183 H   0  0  0  0  0  0  0  0  0  0  0  0
   17.4360  -13.6310   22.5680 C   0  0  0  0  0  0  0  0  0  0  0  0
   16.5060  -12.9450   23.0320 O   0  0  0  0  0  0  0  0  0  0  0  0
   18.1720  -14.9170   24.5950 C   0  0  0  0  0  0  0  0  0  0  0  0
   18.1475  -15.9169   25.0283 H   0  0  0  0  0  0  0  0  0  0  0  0
   17.4990  -14.2637   25.1504 H   0  0  0  0  0  0  0  0  0  0  0  0
   19.5920  -14.3710   24.7440 C   0  0  0  0  0  0  0  0  0  0  0  0
   20.6910  -14.9640   24.0890 C   0  0  0  0  0  0  0  0  0  0  0  0
   20.5301  -15.8288   23.4623 H   0  0  0  0  0  0  0  0  0  0  0  0
   19.8220  -13.2490   25.5510 C   0  0  0  0  0  0  0  0  0  0  0  0
   18.9958  -12.7775   26.0624 H   0  0  0  0  0  0  0  0  0  0  0  0
   21.9860  -14.4540   24.2350 C   0  0  0  0  0  0  0  0  0  0  0  0
   22.8179  -14.9201   23.7279 H   0  0  0  0  0  0  0  0  0  0  0  0
   21.1010  -12.7410   25.6970 C   0  0  0  0  0  0  0  0  0  0  0  0
   21.2617  -11.8752   26.3223 H   0  0  0  0  0  0  0  0  0  0  0  0
   22.1890  -13.3330   25.0460 C   0  0  0  0  0  0  0  0  0  0  0  0
   23.1816  -12.9258   25.1694 H   0  0  0  0  0  0  0  0  0  0  0  0
   18.2450  -13.1710   21.5890 N   0  0  0  0  0  0  0  0  0  0  0  0
   18.0280  -11.8220   21.0620 C   0  0  3  0  0  0  0  0  0  0  0  0
   18.2045  -11.0152   21.7733 H   0  0  0  0  0  0  0  0  0  0  0  0
   16.6090  -11.7290   20.5280 C   0  0  0  0  0  0  0  0  0  0  0  0
   16.2150  -12.7280   19.9260 O   0  0  0  0  0  0  0  0  0  0  0  0
   18.9440  -11.8950   19.8030 C   0  0  0  0  0  0  0  0  0  0  0  0
   19.2913  -10.9056   19.5054 H   0  0  0  0  0  0  0  0  0  0  0  0
   18.4318  -12.3675   18.9649 H   0  0  0  0  0  0  0  0  0  0  0  0
   20.1040  -12.7670   20.3170 C   0  0  0  0  0  0  0  0  0  0  0  0
   20.7280  -12.2141   21.0192 H   0  0  0  0  0  0  0  0  0  0  0  0
   20.7178  -13.1279   19.4917 H   0  0  0  0  0  0  0  0  0  0  0  0
   19.3760  -13.9390   21.0230 C   0  0  0  0  0  0  0  0  0  0  0  0
   19.0449  -14.7027   20.3193 H   0  0  0  0  0  0  0  0  0  0  0  0
   19.9900  -14.3997   21.7968 H   0  0  0  0  0  0  0  0  0  0  0  0
   15.9710  -10.5760   20.7540 N   0  0  0  0  0  0  0  0  0  0  0  0
   16.3683   -9.8488   21.3315 H   0  0  0  0  0  0  0  0  0  0  0  0
   14.6590  -10.4300   20.1130 C   0  0  0  0  0  0  0  0  0  0  0  0
   14.5109  -11.2371   19.3955 H   0  0  0  0  0  0  0  0  0  0  0  0
   14.6091   -9.4713   19.5968 H   0  0  0  0  0  0  0  0  0  0  0  0
   13.5670  -10.4920   21.1900 C   0  0  0  0  0  0  0  0  0  0  0  0
   13.3860   -9.3970   22.0370 C   0  0  0  0  0  0  0  0  0  0  0  0
   14.0074   -8.5200   21.9320 H   0  0  0  0  0  0  0  0  0  0  0  0
   12.4020   -9.4430   23.0150 C   0  0  0  0  0  0  0  0  0  0  0  0
   12.2637   -8.5959   23.6705 H   0  0  0  0  0  0  0  0  0  0  0  0
   11.5890  -10.5670   23.1640 C   0  0  0  0  0  0  0  0  0  0  0  0
   10.8245  -10.5930   23.9264 H   0  0  0  0  0  0  0  0  0  0  0  0
   11.7790  -11.6630   22.3090 C   0  0  0  0  0  0  0  0  0  0  0  0
   11.1606  -12.5426   22.4102 H   0  0  0  0  0  0  0  0  0  0  0  0
   12.7700  -11.6130   21.3270 C   0  0  0  0  0  0  0  0  0  0  0  0
   12.9151  -12.4570   20.6690 H   0  0  0  0  0  0  0  0  0  0  0  0
  1  2  1  0  0  0  0
  1  3  1  0  0  0  0
  1  4  1  0  0  0  0
  1  5  1  0  0  0  0
  5  6  1  0  0  0  0
  5  7  1  0  0  0  0
  5  9  1  0  0  0  0
  7  8  2  0  0  0  0
  7 23  1  0  0  0  0
  9 10  1  0  0  0  0
  9 11  1  0  0  0  0
  9 12  1  0  0  0  0
 12 13  2  0  0  0  0
 12 15  1  0  0  0  0
 13 14  1  0  0  0  0
 13 17  1  0  0  0  0
 15 16  1  0  0  0  0
 15 19  2  0  0  0  0
 17 18  1  0  0  0  0
 17 21  2  0  0  0  0
 19 20  1  0  0  0  0
 19 21  1  0  0  0  0
 21 22  1  0  0  0  0
 23 24  1  0  0  0  0
 23 34  1  0  0  0  0
 24 25  1  0  0  0  0
 24 26  1  0  0  0  0
 24 28  1  0  0  0  0
 26 27  2  0  0  0  0
 26 37  1  0  0  0  0
 28 29  1  0  0  0  0
 28 30  1  0  0  0  0
 28 31  1  0  0  0  0
 31 32  1  0  0  0  0
 31 33  1  0  0  0  0
 31 34  1  0  0  0  0
 34 35  1  0  0  0  0
 34 36  1  0  0  0  0
 37 38  1  0  0  0  0
 37 39  1  0  0  0  0
 39 40  1  0  0  0  0
 39 41  1  0  0  0  0
 39 42  1  0  0  0  0
 42 43  1  0  0  0  0
 42 51  2  0  0  0  0
 43 44  1  0  0  0  0
 43 45  2  0  0  0  0
 45 46  1  0  0  0  0
 45 47  1  0  0  0  0
 47 48  1  0  0  0  0
 47 49  2  0  0  0  0
 49 50  1  0  0  0  0
 49 51  1  0  0  0  0
 51 52  1  0  0  0  0
M  CHG  1   1   1
M  END
$$$$
thrombin_baum_16_6a.H
  MOE2024           3D
thrombin_baum_16_6a
 52 54  0  0  1  0  0  0  0  0999 V2000
   12.2960   -7.8330   24.4930 Cl  0  0  0  0  0  0  0  0  0  0  0  0
   18.1650  -14.9590   24.7060 C   0  0  0  0  0  0  0  0  0  0  0  0
   18.2120  -15.9731   25.1029 H   0  0  0  0  0  0  0  0  0  0  0  0
   17.4867  -14.3615   25.3151 H   0  0  0  0  0  0  0  0  0  0  0  0
   16.2910  -15.7020   23.2200 N   0  3  0  0  0  0  0  0  0  0  0  0
   16.3826  -16.6365   23.5920 H   0  0  0  0  0  0  0  0  0  0  0  0
   15.9691  -15.7503   22.2639 H   0  0  0  0  0  0  0  0  0  0  0  0
   15.6245  -15.1831   23.7738 H   0  0  0  0  0  0  0  0  0  0  0  0
   16.4750  -12.9720   23.1170 O   0  0  0  0  0  0  0  0  0  0  0  0
   17.6190  -15.0150   23.2650 C   0  0  3  0  0  0  0  0  0  0  0  0
   18.3410  -15.5731   22.6688 H   0  0  0  0  0  0  0  0  0  0  0  0
   18.1320  -13.1740   21.6230 N   0  0  0  0  0  0  0  0  0  0  0  0
   15.8790  -12.6740   19.9880 O   0  0  0  0  0  0  0  0  0  0  0  0
   17.4490  -13.6090   22.6980 C   0  0  0  0  0  0  0  0  0  0  0  0
   15.7410  -10.6040   20.8960 N   0  0  0  0  0  0  0  0  0  0  0  0
   16.1603   -9.8926   21.4776 H   0  0  0  0  0  0  0  0  0  0  0  0
   19.1960  -13.9380   20.9450 C   0  0  0  0  0  0  0  0  0  0  0  0
   18.7950  -14.6196   20.1948 H   0  0  0  0  0  0  0  0  0  0  0  0
   19.8116  -14.4958   21.6507 H   0  0  0  0  0  0  0  0  0  0  0  0
   19.9680  -12.7630   20.3060 C   0  0  0  0  0  0  0  0  0  0  0  0
   20.5502  -13.0956   19.4466 H   0  0  0  0  0  0  0  0  0  0  0  0
   20.6288  -12.2862   21.0299 H   0  0  0  0  0  0  0  0  0  0  0  0
   18.8250  -11.8030   19.8720 C   0  0  0  0  0  0  0  0  0  0  0  0
   18.3460  -12.1535   18.9578 H   0  0  0  0  0  0  0  0  0  0  0  0
   19.2007  -10.7911   19.7204 H   0  0  0  0  0  0  0  0  0  0  0  0
   17.8420  -11.8580   21.0720 C   0  0  3  0  0  0  0  0  0  0  0  0
   17.9592  -11.0457   21.7893 H   0  0  0  0  0  0  0  0  0  0  0  0
   16.4070  -11.7530   20.6010 C   0  0  0  0  0  0  0  0  0  0  0  0
   14.3830  -10.4310   20.3370 C   0  0  0  0  0  0  0  0  0  0  0  0
   14.1390  -11.2847   19.7048 H   0  0  0  0  0  0  0  0  0  0  0  0
   14.3483   -9.5176   19.7433 H   0  0  0  0  0  0  0  0  0  0  0  0
   13.3610  -10.3350   21.4880 C   0  0  0  0  0  0  0  0  0  0  0  0
   13.3210   -9.2280   22.3550 C   0  0  0  0  0  0  0  0  0  0  0  0
   14.0172   -8.4123   22.2270 H   0  0  0  0  0  0  0  0  0  0  0  0
   12.3740   -9.1900   23.3840 C   0  0  0  0  0  0  0  0  0  0  0  0
   11.4690  -10.2430   23.5450 C   0  0  0  0  0  0  0  0  0  0  0  0
   10.7260  -10.2049   24.3279 H   0  0  0  0  0  0  0  0  0  0  0  0
   11.5300  -11.3430   22.6900 C   0  0  0  0  0  0  0  0  0  0  0  0
   10.8559  -12.1748   22.8315 H   0  0  0  0  0  0  0  0  0  0  0  0
   12.4570  -11.3690   21.6570 C   0  0  0  0  0  0  0  0  0  0  0  0
   12.4828  -12.7300   20.5517 Cl  0  0  0  0  0  0  0  0  0  0  0  0
   19.5690  -14.3360   24.7730 C   0  0  0  0  0  0  0  0  0  0  0  0
   20.6610  -14.8710   24.0720 C   0  0  0  0  0  0  0  0  0  0  0  0
   20.5331  -15.7448   23.4503 H   0  0  0  0  0  0  0  0  0  0  0  0
   21.9200  -14.2620   24.1850 C   0  0  0  0  0  0  0  0  0  0  0  0
   22.7694  -14.6974   23.6797 H   0  0  0  0  0  0  0  0  0  0  0  0
   22.0890  -13.1080   24.9370 C   0  0  0  0  0  0  0  0  0  0  0  0
   23.0406  -12.5972   24.9342 H   0  0  0  0  0  0  0  0  0  0  0  0
   21.0200  -12.6010   25.7050 C   0  0  0  0  0  0  0  0  0  0  0  0
   21.1708  -11.7861   26.3975 H   0  0  0  0  0  0  0  0  0  0  0  0
   19.7620  -13.1830   25.5440 C   0  0  0  0  0  0  0  0  0  0  0  0
   18.9102  -12.7299   26.0294 H   0  0  0  0  0  0  0  0  0  0  0  0
  1 35  1  0  0  0  0
  2  3  1  0  0  0  0
  2  4  1  0  0  0  0
  2 10  1  0  0  0  0
  2 42  1  0  0  0  0
  5  6  1  0  0  0  0
  5  7  1  0  0  0  0
  5  8  1  0  0  0  0
  5 10  1  0  0  0  0
  9 14  2  0  0  0  0
 10 11  1  0  0  0  0
 10 14  1  0  0  0  0
 12 14  1  0  0  0  0
 12 17  1  0  0  0  0
 12 26  1  0  0  0  0
 13 28  2  0  0  0  0
 15 16  1  0  0  0  0
 15 28  1  0  0  0  0
 15 29  1  0  0  0  0
 17 18  1  0  0  0  0
 17 19  1  0  0  0  0
 17 20  1  0  0  0  0
 20 21  1  0  0  0  0
 20 22  1  0  0  0  0
 20 23  1  0  0  0  0
 23 24  1  0  0  0  0
 23 25  1  0  0  0  0
 23 26  1  0  0  0  0
 26 27  1  0  0  0  0
 26 28  1  0  0  0  0
 29 30  1  0  0  0  0
 29 31  1  0  0  0  0
 29 32  1  0  0  0  0
 32 33  1  0  0  0  0
 32 40  2  0  0  0  0
 33 34  1  0  0  0  0
 33 35  2  0  0  0  0
 35 36  1  0  0  0  0
 36 37  1  0  0  0  0
 36 38  2  0  0  0  0
 38 39  1  0  0  0  0
 38 40  1  0  0  0  0
 40 41  1  0  0  0  0
 42 43  1  0  0  0  0
 42 51  2  0  0  0  0
 43 44  1  0  0  0  0
 43 45  2  0  0  0  0
 45 46  1  0  0  0  0
 45 47  1  0  0  0  0
 47 48  1  0  0  0  0
 47 49  2  0  0  0  0
 49 50  1  0  0  0  0
 49 51  1  0  0  0  0
 51 52  1  0  0  0  0
M  CHG  1   5   1
M  END
$$$$
thrombin_baum_17_6b.H
  MOE2024           3D
thrombin_baum_17_6b
 55 57  0  0  1  0  0  0  0  0999 V2000
   12.3724   -7.7699   24.4352 Cl  0  0  0  0  0  0  0  0  0  0  0  0
   18.1650  -14.9590   24.7060 C   0  0  0  0  0  0  0  0  0  0  0  0
   18.2120  -15.9731   25.1029 H   0  0  0  0  0  0  0  0  0  0  0  0
   17.4867  -14.3615   25.3151 H   0  0  0  0  0  0  0  0  0  0  0  0
   16.2910  -15.7020   23.2200 N   0  3  0  0  0  0  0  0  0  0  0  0
   16.3826  -16.6365   23.5920 H   0  0  0  0  0  0  0  0  0  0  0  0
   15.9691  -15.7503   22.2639 H   0  0  0  0  0  0  0  0  0  0  0  0
   15.6245  -15.1831   23.7738 H   0  0  0  0  0  0  0  0  0  0  0  0
   16.4750  -12.9720   23.1170 O   0  0  0  0  0  0  0  0  0  0  0  0
   17.6190  -15.0150   23.2650 C   0  0  3  0  0  0  0  0  0  0  0  0
   18.3410  -15.5731   22.6688 H   0  0  0  0  0  0  0  0  0  0  0  0
   18.1320  -13.1740   21.6230 N   0  0  0  0  0  0  0  0  0  0  0  0
   15.8790  -12.6740   19.9880 O   0  0  0  0  0  0  0  0  0  0  0  0
   17.4490  -13.6090   22.6980 C   0  0  0  0  0  0  0  0  0  0  0  0
   15.7410  -10.6040   20.8960 N   0  0  0  0  0  0  0  0  0  0  0  0
   16.1603   -9.8926   21.4776 H   0  0  0  0  0  0  0  0  0  0  0  0
   19.1960  -13.9380   20.9450 C   0  0  0  0  0  0  0  0  0  0  0  0
   18.7950  -14.6196   20.1948 H   0  0  0  0  0  0  0  0  0  0  0  0
   19.8116  -14.4958   21.6507 H   0  0  0  0  0  0  0  0  0  0  0  0
   19.9680  -12.7630   20.3060 C   0  0  0  0  0  0  0  0  0  0  0  0
   20.5502  -13.0956   19.4466 H   0  0  0  0  0  0  0  0  0  0  0  0
   20.6288  -12.2862   21.0299 H   0  0  0  0  0  0  0  0  0  0  0  0
   18.8250  -11.8030   19.8720 C   0  0  0  0  0  0  0  0  0  0  0  0
   18.3460  -12.1535   18.9578 H   0  0  0  0  0  0  0  0  0  0  0  0
   19.2007  -10.7911   19.7204 H   0  0  0  0  0  0  0  0  0  0  0  0
   17.8420  -11.8580   21.0720 C   0  0  3  0  0  0  0  0  0  0  0  0
   17.9592  -11.0457   21.7893 H   0  0  0  0  0  0  0  0  0  0  0  0
   16.4070  -11.7530   20.6010 C   0  0  0  0  0  0  0  0  0  0  0  0
   14.3830  -10.4310   20.3370 C   0  0  0  0  0  0  0  0  0  0  0  0
   14.1390  -11.2847   19.7048 H   0  0  0  0  0  0  0  0  0  0  0  0
   14.3483   -9.5176   19.7433 H   0  0  0  0  0  0  0  0  0  0  0  0
   13.3610  -10.3350   21.4880 C   0  0  0  0  0  0  0  0  0  0  0  0
   13.3210   -9.2280   22.3550 C   0  0  0  0  0  0  0  0  0  0  0  0
   14.0043   -8.4300   22.2265 H   0  0  0  0  0  0  0  0  0  0  0  0
   12.3911   -9.1516   23.3889 C   0  0  0  0  0  0  0  0  0  0  0  0
   11.4776  -10.1815   23.5800 C   0  0  0  0  0  0  0  0  0  0  0  0
   10.7697  -10.1168   24.3650 H   0  0  0  0  0  0  0  0  0  0  0  0
   11.5035  -11.2844   22.7382 C   0  0  0  0  0  0  0  0  0  0  0  0
   10.8021  -12.0642   22.8919 H   0  0  0  0  0  0  0  0  0  0  0  0
   12.4343  -11.3764   21.6995 C   0  0  0  0  0  0  0  0  0  0  0  0
   12.3967  -12.6230   20.8308 C   0  0  0  0  0  0  0  0  0  0  0  0
   13.3767  -13.0987   20.8669 H   0  0  0  0  0  0  0  0  0  0  0  0
   12.1421  -12.3284   19.8124 H   0  0  0  0  0  0  0  0  0  0  0  0
   11.6430  -13.3146   21.2064 H   0  0  0  0  0  0  0  0  0  0  0  0
   19.5690  -14.3360   24.7730 C   0  0  0  0  0  0  0  0  0  0  0  0
   20.6610  -14.8710   24.0720 C   0  0  0  0  0  0  0  0  0  0  0  0
   20.5331  -15.7448   23.4503 H   0  0  0  0  0  0  0  0  0  0  0  0
   21.9200  -14.2620   24.1850 C   0  0  0  0  0  0  0  0  0  0  0  0
   22.7694  -14.6974   23.6797 H   0  0  0  0  0  0  0  0  0  0  0  0
   22.0890  -13.1080   24.9370 C   0  0  0  0  0  0  0  0  0  0  0  0
   23.0406  -12.5972   24.9342 H   0  0  0  0  0  0  0  0  0  0  0  0
   21.0200  -12.6010   25.7050 C   0  0  0  0  0  0  0  0  0  0  0  0
   21.1708  -11.7861   26.3975 H   0  0  0  0  0  0  0  0  0  0  0  0
   19.7620  -13.1830   25.5440 C   0  0  0  0  0  0  0  0  0  0  0  0
   18.9102  -12.7299   26.0294 H   0  0  0  0  0  0  0  0  0  0  0  0
  1 35  1  0  0  0  0
  2  3  1  0  0  0  0
  2  4  1  0  0  0  0
  2 10  1  0  0  0  0
  2 45  1  0  0  0  0
  5  6  1  0  0  0  0
  5  7  1  0  0  0  0
  5  8  1  0  0  0  0
  5 10  1  0  0  0  0
  9 14  2  0  0  0  0
 10 11  1  0  0  0  0
 10 14  1  0  0  0  0
 12 14  1  0  0  0  0
 12 17  1  0  0  0  0
 12 26  1  0  0  0  0
 13 28  2  0  0  0  0
 15 16  1  0  0  0  0
 15 28  1  0  0  0  0
 15 29  1  0  0  0  0
 17 18  1  0  0  0  0
 17 19  1  0  0  0  0
 17 20  1  0  0  0  0
 20 21  1  0  0  0  0
 20 22  1  0  0  0  0
 20 23  1  0  0  0  0
 23 24  1  0  0  0  0
 23 25  1  0  0  0  0
 23 26  1  0  0  0  0
 26 27  1  0  0  0  0
 26 28  1  0  0  0  0
 29 30  1  0  0  0  0
 29 31  1  0  0  0  0
 29 32  1  0  0  0  0
 32 33  1  0  0  0  0
 32 40  2  0  0  0  0
 33 34  1  0  0  0  0
 33 35  2  0  0  0  0
 35 36  1  0  0  0  0
 36 37  1  0  0  0  0
 36 38  2  0  0  0  0
 38 39  1  0  0  0  0
 38 40  1  0  0  0  0
 40 41  1  0  0  0  0
 41 42  1  0  0  0  0
 41 43  1  0  0  0  0
 41 44  1  0  0  0  0
 45 46  1  0  0  0  0
 45 54  2  0  0  0  0
 46 47  1  0  0  0  0
 46 48  2  0  0  0  0
 48 49  1  0  0  0  0
 48 50  1  0  0  0  0
 50 51  1  0  0  0  0
 50 52  2  0  0  0  0
 52 53  1  0  0  0  0
 52 54  1  0  0  0  0
 54 55  1  0  0  0  0
M  CHG  1   5   1
M  END
$$$$
thrombin_baum_18_6c.H
  MOE2024           3D
thrombin_baum_18_6c
 56 58  0  0  1  0  0  0  0  0999 V2000
   12.3585   -7.7883   24.4401 Cl  0  0  0  0  0  0  0  0  0  0  0  0
   18.1650  -14.9590   24.7060 C   0  0  0  0  0  0  0  0  0  0  0  0
   18.2120  -15.9731   25.1029 H   0  0  0  0  0  0  0  0  0  0  0  0
   17.4867  -14.3615   25.3151 H   0  0  0  0  0  0  0  0  0  0  0  0
   16.2910  -15.7020   23.2200 N   0  3  0  0  0  0  0  0  0  0  0  0
   16.3826  -16.6365   23.5920 H   0  0  0  0  0  0  0  0  0  0  0  0
   15.9691  -15.7503   22.2639 H   0  0  0  0  0  0  0  0  0  0  0  0
   15.6245  -15.1831   23.7738 H   0  0  0  0  0  0  0  0  0  0  0  0
   16.4750  -12.9720   23.1170 O   0  0  0  0  0  0  0  0  0  0  0  0
   17.6190  -15.0150   23.2650 C   0  0  3  0  0  0  0  0  0  0  0  0
   18.3410  -15.5731   22.6688 H   0  0  0  0  0  0  0  0  0  0  0  0
   18.1320  -13.1740   21.6230 N   0  0  0  0  0  0  0  0  0  0  0  0
   15.8790  -12.6740   19.9880 O   0  0  0  0  0  0  0  0  0  0  0  0
   17.4490  -13.6090   22.6980 C   0  0  0  0  0  0  0  0  0  0  0  0
   15.7410  -10.6040   20.8960 N   0  0  0  0  0  0  0  0  0  0  0  0
   16.1603   -9.8926   21.4776 H   0  0  0  0  0  0  0  0  0  0  0  0
   19.1960  -13.9380   20.9450 C   0  0  0  0  0  0  0  0  0  0  0  0
   18.7950  -14.6196   20.1948 H   0  0  0  0  0  0  0  0  0  0  0  0
   19.8116  -14.4958   21.6507 H   0  0  0  0  0  0  0  0  0  0  0  0
   19.9680  -12.7630   20.3060 C   0  0  0  0  0  0  0  0  0  0  0  0
   20.5502  -13.0956   19.4466 H   0  0  0  0  0  0  0  0  0  0  0  0
   20.6288  -12.2862   21.0299 H   0  0  0  0  0  0  0  0  0  0  0  0
   18.8250  -11.8030   19.8720 C   0  0  0  0  0  0  0  0  0  0  0  0
   18.3460  -12.1535   18.9578 H   0  0  0  0  0  0  0  0  0  0  0  0
   19.2007  -10.7911   19.7204 H   0  0  0  0  0  0  0  0  0  0  0  0
   17.8420  -11.8580   21.0720 C   0  0  3  0  0  0  0  0  0  0  0  0
   17.9592  -11.0457   21.7893 H   0  0  0  0  0  0  0  0  0  0  0  0
   16.4070  -11.7530   20.6010 C   0  0  0  0  0  0  0  0  0  0  0  0
   14.3830  -10.4310   20.3370 C   0  0  0  0  0  0  0  0  0  0  0  0
   14.1390  -11.2847   19.7048 H   0  0  0  0  0  0  0  0  0  0  0  0
   14.3483   -9.5176   19.7433 H   0  0  0  0  0  0  0  0  0  0  0  0
   13.3610  -10.3350   21.4880 C   0  0  0  0  0  0  0  0  0  0  0  0
   13.3210   -9.2280   22.3550 C   0  0  0  0  0  0  0  0  0  0  0  0
   14.0071   -8.4309   22.2346 H   0  0  0  0  0  0  0  0  0  0  0  0
   12.3817   -9.1603   23.3848 C   0  0  0  0  0  0  0  0  0  0  0  0
   11.4619  -10.1919   23.5663 C   0  0  0  0  0  0  0  0  0  0  0  0
   10.7547  -10.1292   24.3524 H   0  0  0  0  0  0  0  0  0  0  0  0
   11.4797  -11.2905   22.7158 C   0  0  0  0  0  0  0  0  0  0  0  0
   10.7800  -12.0711   22.8567 H   0  0  0  0  0  0  0  0  0  0  0  0
   12.4207  -11.3574   21.6836 C   0  0  0  0  0  0  0  0  0  0  0  0
   12.4297  -12.4443   20.8266 O   0  0  0  0  0  0  0  0  0  0  0  0
   11.3443  -13.3817   20.6461 C   0  0  0  0  0  0  0  0  0  0  0  0
   11.6001  -14.0273   19.8057 H   0  0  0  0  0  0  0  0  0  0  0  0
   10.4366  -12.8176   20.4294 H   0  0  0  0  0  0  0  0  0  0  0  0
   11.2372  -13.9680   21.5585 H   0  0  0  0  0  0  0  0  0  0  0  0
   19.5690  -14.3360   24.7730 C   0  0  0  0  0  0  0  0  0  0  0  0
   20.6610  -14.8710   24.0720 C   0  0  0  0  0  0  0  0  0  0  0  0
   20.5331  -15.7448   23.4503 H   0  0  0  0  0  0  0  0  0  0  0  0
   21.9200  -14.2620   24.1850 C   0  0  0  0  0  0  0  0  0  0  0  0
   22.7694  -14.6974   23.6797 H   0  0  0  0  0  0  0  0  0  0  0  0
   22.0890  -13.1080   24.9370 C   0  0  0  0  0  0  0  0  0  0  0  0
   23.0406  -12.5972   24.9342 H   0  0  0  0  0  0  0  0  0  0  0  0
   21.0200  -12.6010   25.7050 C   0  0  0  0  0  0  0  0  0  0  0  0
   21.1708  -11.7861   26.3975 H   0  0  0  0  0  0  0  0  0  0  0  0
   19.7620  -13.1830   25.5440 C   0  0  0  0  0  0  0  0  0  0  0  0
   18.9102  -12.7299   26.0294 H   0  0  0  0  0  0  0  0  0  0  0  0
  1 35  1  0  0  0  0
  2  3  1  0  0  0  0
  2  4  1  0  0  0  0
  2 10  1  0  0  0  0
  2 46  1  0  0  0  0
  5  6  1  0  0  0  0
  5  7  1  0  0  0  0
  5  8  1  0  0  0  0
  5 10  1  0  0  0  0
  9 14  2  0  0  0  0
 10 11  1  0  0  0  0
 10 14  1  0  0  0  0
 12 14  1  0  0  0  0
 12 17  1  0  0  0  0
 12 26  1  0  0  0  0
 13 28  2  0  0  0  0
 15 16  1  0  0  0  0
 15 28  1  0  0  0  0
 15 29  1  0  0  0  0
 17 18  1  0  0  0  0
 17 19  1  0  0  0  0
 17 20  1  0  0  0  0
 20 21  1  0  0  0  0
 20 22  1  0  0  0  0
 20 23  1  0  0  0  0
 23 24  1  0  0  0  0
 23 25  1  0  0  0  0
 23 26  1  0  0  0  0
 26 27  1  0  0  0  0
 26 28  1  0  0  0  0
 29 30  1  0  0  0  0
 29 31  1  0  0  0  0
 29 32  1  0  0  0  0
 32 33  1  0  0  0  0
 32 40  2  0  0  0  0
 33 34  1  0  0  0  0
 33 35  2  0  0  0  0
 35 36  1  0  0  0  0
 36 37  1  0  0  0  0
 36 38  2  0  0  0  0
 38 39  1  0  0  0  0
 38 40  1  0  0  0  0
 40 41  1  0  0  0  0
 41 42  1  0  0  0  0
 42 43  1  0  0  0  0
 42 44  1  0  0  0  0
 42 45  1  0  0  0  0
 46 47  1  0  0  0  0
 46 55  2  0  0  0  0
 47 48  1  0  0  0  0
 47 49  2  0  0  0  0
 49 50  1  0  0  0  0
 49 51  1  0  0  0  0
 51 52  1  0  0  0  0
 51 53  2  0  0  0  0
 53 54  1  0  0  0  0
 53 55  1  0  0  0  0
 55 56  1  0  0  0  0
M  CHG  1   5   1
M  END
$$$$
thrombin_baum_19_6d.H
  MOE2024           3D
thrombin_baum_19_6d
 53 55  0  0  1  0  0  0  0  0999 V2000
   12.3423   -7.7970   24.4388 Cl  0  0  0  0  0  0  0  0  0  0  0  0
   18.1650  -14.9590   24.7060 C   0  0  0  0  0  0  0  0  0  0  0  0
   18.2120  -15.9731   25.1029 H   0  0  0  0  0  0  0  0  0  0  0  0
   17.4867  -14.3615   25.3151 H   0  0  0  0  0  0  0  0  0  0  0  0
   16.2910  -15.7020   23.2200 N   0  3  0  0  0  0  0  0  0  0  0  0
   16.3826  -16.6365   23.5920 H   0  0  0  0  0  0  0  0  0  0  0  0
   15.9691  -15.7503   22.2639 H   0  0  0  0  0  0  0  0  0  0  0  0
   15.6245  -15.1831   23.7738 H   0  0  0  0  0  0  0  0  0  0  0  0
   16.4750  -12.9720   23.1170 O   0  0  0  0  0  0  0  0  0  0  0  0
   17.6190  -15.0150   23.2650 C   0  0  3  0  0  0  0  0  0  0  0  0
   18.3410  -15.5731   22.6688 H   0  0  0  0  0  0  0  0  0  0  0  0
   18.1320  -13.1740   21.6230 N   0  0  0  0  0  0  0  0  0  0  0  0
   15.8790  -12.6740   19.9880 O   0  0  0  0  0  0  0  0  0  0  0  0
   17.4490  -13.6090   22.6980 C   0  0  0  0  0  0  0  0  0  0  0  0
   15.7410  -10.6040   20.8960 N   0  0  0  0  0  0  0  0  0  0  0  0
   16.1603   -9.8926   21.4776 H   0  0  0  0  0  0  0  0  0  0  0  0
   19.1960  -13.9380   20.9450 C   0  0  0  0  0  0  0  0  0  0  0  0
   18.7950  -14.6196   20.1948 H   0  0  0  0  0  0  0  0  0  0  0  0
   19.8116  -14.4958   21.6507 H   0  0  0  0  0  0  0  0  0  0  0  0
   19.9680  -12.7630   20.3060 C   0  0  0  0  0  0  0  0  0  0  0  0
   20.5502  -13.0956   19.4466 H   0  0  0  0  0  0  0  0  0  0  0  0
   20.6288  -12.2862   21.0299 H   0  0  0  0  0  0  0  0  0  0  0  0
   18.8250  -11.8030   19.8720 C   0  0  0  0  0  0  0  0  0  0  0  0
   18.3460  -12.1535   18.9578 H   0  0  0  0  0  0  0  0  0  0  0  0
   19.2007  -10.7911   19.7204 H   0  0  0  0  0  0  0  0  0  0  0  0
   17.8420  -11.8580   21.0720 C   0  0  3  0  0  0  0  0  0  0  0  0
   17.9592  -11.0457   21.7893 H   0  0  0  0  0  0  0  0  0  0  0  0
   16.4070  -11.7530   20.6010 C   0  0  0  0  0  0  0  0  0  0  0  0
   14.3830  -10.4310   20.3370 C   0  0  0  0  0  0  0  0  0  0  0  0
   14.1390  -11.2847   19.7048 H   0  0  0  0  0  0  0  0  0  0  0  0
   14.3483   -9.5176   19.7433 H   0  0  0  0  0  0  0  0  0  0  0  0
   13.3610  -10.3350   21.4880 C   0  0  0  0  0  0  0  0  0  0  0  0
   13.3210   -9.2280   22.3550 C   0  0  0  0  0  0  0  0  0  0  0  0
   13.9823   -8.4127   22.2172 H   0  0  0  0  0  0  0  0  0  0  0  0
   12.3934   -9.1797   23.3986 C   0  0  0  0  0  0  0  0  0  0  0  0
   11.5067  -10.2380   23.6044 C   0  0  0  0  0  0  0  0  0  0  0  0
   10.7985  -10.1833   24.3903 H   0  0  0  0  0  0  0  0  0  0  0  0
   11.5681  -11.3589   22.7847 C   0  0  0  0  0  0  0  0  0  0  0  0
   10.9148  -12.1784   22.9413 H   0  0  0  0  0  0  0  0  0  0  0  0
   12.5078  -11.4121   21.7595 C   0  0  0  0  0  0  0  0  0  0  0  0
   12.6039  -12.5837   21.0558 O   0  0  0  0  0  0  0  0  0  0  0  0
   13.4699  -12.6423   20.5989 H   0  0  0  0  0  0  0  0  0  0  0  0
   19.5690  -14.3360   24.7730 C   0  0  0  0  0  0  0  0  0  0  0  0
   20.6610  -14.8710   24.0720 C   0  0  0  0  0  0  0  0  0  0  0  0
   20.5331  -15.7448   23.4503 H   0  0  0  0  0  0  0  0  0  0  0  0
   21.9200  -14.2620   24.1850 C   0  0  0  0  0  0  0  0  0  0  0  0
   22.7694  -14.6974   23.6797 H   0  0  0  0  0  0  0  0  0  0  0  0
   22.0890  -13.1080   24.9370 C   0  0  0  0  0  0  0  0  0  0  0  0
   23.0406  -12.5972   24.9342 H   0  0  0  0  0  0  0  0  0  0  0  0
   21.0200  -12.6010   25.7050 C   0  0  0  0  0  0  0  0  0  0  0  0
   21.1708  -11.7861   26.3975 H   0  0  0  0  0  0  0  0  0  0  0  0
   19.7620  -13.1830   25.5440 C   0  0  0  0  0  0  0  0  0  0  0  0
   18.9102  -12.7299   26.0294 H   0  0  0  0  0  0  0  0  0  0  0  0
  1 35  1  0  0  0  0
  2  3  1  0  0  0  0
  2  4  1  0  0  0  0
  2 10  1  0  0  0  0
  2 43  1  0  0  0  0
  5  6  1  0  0  0  0
  5  7  1  0  0  0  0
  5  8  1  0  0  0  0
  5 10  1  0  0  0  0
  9 14  2  0  0  0  0
 10 11  1  0  0  0  0
 10 14  1  0  0  0  0
 12 14  1  0  0  0  0
 12 17  1  0  0  0  0
 12 26  1  0  0  0  0
 13 28  2  0  0  0  0
 15 16  1  0  0  0  0
 15 28  1  0  0  0  0
 15 29  1  0  0  0  0
 17 18  1  0  0  0  0
 17 19  1  0  0  0  0
 17 20  1  0  0  0  0
 20 21  1  0  0  0  0
 20 22  1  0  0  0  0
 20 23  1  0  0  0  0
 23 24  1  0  0  0  0
 23 25  1  0  0  0  0
 23 26  1  0  0  0  0
 26 27  1  0  0  0  0
 26 28  1  0  0  0  0
 29 30  1  0  0  0  0
 29 31  1  0  0  0  0
 29 32  1  0  0  0  0
 32 33  1  0  0  0  0
 32 40  2  0  0  0  0
 33 34  1  0  0  0  0
 33 35  2  0  0  0  0
 35 36  1  0  0  0  0
 36 37  1  0  0  0  0
 36 38  2  0  0  0  0
 38 39  1  0  0  0  0
 38 40  1  0  0  0  0
 40 41  1  0  0  0  0
 41 42  1  0  0  0  0
 43 44  1  0  0  0  0
 43 52  2  0  0  0  0
 44 45  1  0  0  0  0
 44 46  2  0  0  0  0
 46 47  1  0  0  0  0
 46 48  1  0  0  0  0
 48 49  1  0  0  0  0
 48 50  2  0  0  0  0
 50 51  1  0  0  0  0
 50 52  1  0  0  0  0
 52 53  1  0  0  0  0
M  CHG  1   5   1
M  END
$$$$
thrombin_baum_20_6e.H
  MOE2024           3D
thrombin_baum_20_6e
 52 54  0  0  1  0  0  0  0  0999 V2000
   12.3549   -7.8024   24.4492 Cl  0  0  0  0  0  0  0  0  0  0  0  0
   18.1650  -14.9590   24.7060 C   0  0  0  0  0  0  0  0  0  0  0  0
   18.2120  -15.9731   25.1029 H   0  0  0  0  0  0  0  0  0  0  0  0
   17.4867  -14.3615   25.3151 H   0  0  0  0  0  0  0  0  0  0  0  0
   16.2910  -15.7020   23.2200 N   0  3  0  0  0  0  0  0  0  0  0  0
   16.3826  -16.6365   23.5920 H   0  0  0  0  0  0  0  0  0  0  0  0
   15.9691  -15.7503   22.2639 H   0  0  0  0  0  0  0  0  0  0  0  0
   15.6245  -15.1831   23.7738 H   0  0  0  0  0  0  0  0  0  0  0  0
   16.4750  -12.9720   23.1170 O   0  0  0  0  0  0  0  0  0  0  0  0
   17.6190  -15.0150   23.2650 C   0  0  3  0  0  0  0  0  0  0  0  0
   18.3410  -15.5731   22.6688 H   0  0  0  0  0  0  0  0  0  0  0  0
   18.1320  -13.1740   21.6230 N   0  0  0  0  0  0  0  0  0  0  0  0
   15.8790  -12.6740   19.9880 O   0  0  0  0  0  0  0  0  0  0  0  0
   17.4490  -13.6090   22.6980 C   0  0  0  0  0  0  0  0  0  0  0  0
   15.7410  -10.6040   20.8960 N   0  0  0  0  0  0  0  0  0  0  0  0
   16.1603   -9.8926   21.4776 H   0  0  0  0  0  0  0  0  0  0  0  0
   19.1960  -13.9380   20.9450 C   0  0  0  0  0  0  0  0  0  0  0  0
   18.7950  -14.6196   20.1948 H   0  0  0  0  0  0  0  0  0  0  0  0
   19.8116  -14.4958   21.6507 H   0  0  0  0  0  0  0  0  0  0  0  0
   19.9680  -12.7630   20.3060 C   0  0  0  0  0  0  0  0  0  0  0  0
   20.5502  -13.0956   19.4466 H   0  0  0  0  0  0  0  0  0  0  0  0
   20.6288  -12.2862   21.0299 H   0  0  0  0  0  0  0  0  0  0  0  0
   18.8250  -11.8030   19.8720 C   0  0  0  0  0  0  0  0  0  0  0  0
   18.3460  -12.1535   18.9578 H   0  0  0  0  0  0  0  0  0  0  0  0
   19.2007  -10.7911   19.7204 H   0  0  0  0  0  0  0  0  0  0  0  0
   17.8420  -11.8580   21.0720 C   0  0  3  0  0  0  0  0  0  0  0  0
   17.9592  -11.0457   21.7893 H   0  0  0  0  0  0  0  0  0  0  0  0
   16.4070  -11.7530   20.6010 C   0  0  0  0  0  0  0  0  0  0  0  0
   14.3830  -10.4310   20.3370 C   0  0  0  0  0  0  0  0  0  0  0  0
   14.1390  -11.2847   19.7048 H   0  0  0  0  0  0  0  0  0  0  0  0
   14.3483   -9.5176   19.7433 H   0  0  0  0  0  0  0  0  0  0  0  0
   13.3610  -10.3350   21.4880 C   0  0  0  0  0  0  0  0  0  0  0  0
   13.3210   -9.2280   22.3550 C   0  0  0  0  0  0  0  0  0  0  0  0
   13.9965   -8.4221   22.2288 H   0  0  0  0  0  0  0  0  0  0  0  0
   12.3872   -9.1751   23.3949 C   0  0  0  0  0  0  0  0  0  0  0  0
   11.4802  -10.2204   23.5888 C   0  0  0  0  0  0  0  0  0  0  0  0
   10.7768  -10.1640   24.3793 H   0  0  0  0  0  0  0  0  0  0  0  0
   11.5096  -11.3237   22.7424 C   0  0  0  0  0  0  0  0  0  0  0  0
   10.8297  -12.1257   22.8730 H   0  0  0  0  0  0  0  0  0  0  0  0
   12.4450  -11.3652   21.7138 C   0  0  0  0  0  0  0  0  0  0  0  0
   12.4425  -12.4568   20.9206 F   0  0  0  0  0  0  0  0  0  0  0  0
   19.5690  -14.3360   24.7730 C   0  0  0  0  0  0  0  0  0  0  0  0
   20.6610  -14.8710   24.0720 C   0  0  0  0  0  0  0  0  0  0  0  0
   20.5331  -15.7448   23.4503 H   0  0  0  0  0  0  0  0  0  0  0  0
   21.9200  -14.2620   24.1850 C   0  0  0  0  0  0  0  0  0  0  0  0
   22.7694  -14.6974   23.6797 H   0  0  0  0  0  0  0  0  0  0  0  0
   22.0890  -13.1080   24.9370 C   0  0  0  0  0  0  0  0  0  0  0  0
   23.0406  -12.5972   24.9342 H   0  0  0  0  0  0  0  0  0  0  0  0
   21.0200  -12.6010   25.7050 C   0  0  0  0  0  0  0  0  0  0  0  0
   21.1708  -11.7861   26.3975 H   0  0  0  0  0  0  0  0  0  0  0  0
   19.7620  -13.1830   25.5440 C   0  0  0  0  0  0  0  0  0  0  0  0
   18.9102  -12.7299   26.0294 H   0  0  0  0  0  0  0  0  0  0  0  0
  1 35  1  0  0  0  0
  2  3  1  0  0  0  0
  2  4  1  0  0  0  0
  2 10  1  0  0  0  0
  2 42  1  0  0  0  0
  5  6  1  0  0  0  0
  5  7  1  0  0  0  0
  5  8  1  0  0  0  0
  5 10  1  0  0  0  0
  9 14  2  0  0  0  0
 10 11  1  0  0  0  0
 10 14  1  0  0  0  0
 12 14  1  0  0  0  0
 12 17  1  0  0  0  0
 12 26  1  0  0  0  0
 13 28  2  0  0  0  0
 15 16  1  0  0  0  0
 15 28  1  0  0  0  0
 15 29  1  0  0  0  0
 17 18  1  0  0  0  0
 17 19  1  0  0  0  0
 17 20  1  0  0  0  0
 20 21  1  0  0  0  0
 20 22  1  0  0  0  0
 20 23  1  0  0  0  0
 23 24  1  0  0  0  0
 23 25  1  0  0  0  0
 23 26  1  0  0  0  0
 26 27  1  0  0  0  0
 26 28  1  0  0  0  0
 29 30  1  0  0  0  0
 29 31  1  0  0  0  0
 29 32  1  0  0  0  0
 32 33  1  0  0  0  0
 32 40  2  0  0  0  0
 33 34  1  0  0  0  0
 33 35  2  0  0  0  0
 35 36  1  0  0  0  0
 36 37  1  0  0  0  0
 36 38  2  0  0  0  0
 38 39  1  0  0  0  0
 38 40  1  0  0  0  0
 40 41  1  0  0  0  0
 42 43  1  0  0  0  0
 42 51  2  0  0  0  0
 43 44  1  0  0  0  0
 43 45  2  0  0  0  0
 45 46  1  0  0  0  0
 45 47  1  0  0  0  0
 47 48  1  0  0  0  0
 47 49  2  0  0  0  0
 49 50  1  0  0  0  0
 49 51  1  0  0  0  0
 51 52  1  0  0  0  0
M  CHG  1   5   1
M  END
$$$$
thrombin_baum_21_7a.H
  MOE2024           3D
thrombin_baum_21_7a
 58 60  0  0  1  0  0  0  0  0999 V2000
   12.4004   -7.9335   24.3049 C   0  0  0  0  0  0  0  0  0  0  0  0
   11.5881   -8.0216   25.0264 H   0  0  0  0  0  0  0  0  0  0  0  0
   12.2602   -7.0457   23.6881 H   0  0  0  0  0  0  0  0  0  0  0  0
   13.3599   -7.8956   24.8209 H   0  0  0  0  0  0  0  0  0  0  0  0
   18.1650  -14.9590   24.7060 C   0  0  0  0  0  0  0  0  0  0  0  0
   18.2120  -15.9731   25.1029 H   0  0  0  0  0  0  0  0  0  0  0  0
   17.4867  -14.3615   25.3151 H   0  0  0  0  0  0  0  0  0  0  0  0
   16.2910  -15.7020   23.2200 N   0  3  0  0  0  0  0  0  0  0  0  0
   16.3826  -16.6365   23.5920 H   0  0  0  0  0  0  0  0  0  0  0  0
   15.9691  -15.7503   22.2639 H   0  0  0  0  0  0  0  0  0  0  0  0
   15.6245  -15.1831   23.7738 H   0  0  0  0  0  0  0  0  0  0  0  0
   16.4750  -12.9720   23.1170 O   0  0  0  0  0  0  0  0  0  0  0  0
   17.6190  -15.0150   23.2650 C   0  0  3  0  0  0  0  0  0  0  0  0
   18.3410  -15.5731   22.6688 H   0  0  0  0  0  0  0  0  0  0  0  0
   18.1320  -13.1740   21.6230 N   0  0  0  0  0  0  0  0  0  0  0  0
   15.8790  -12.6740   19.9880 O   0  0  0  0  0  0  0  0  0  0  0  0
   17.4490  -13.6090   22.6980 C   0  0  0  0  0  0  0  0  0  0  0  0
   15.7410  -10.6040   20.8960 N   0  0  0  0  0  0  0  0  0  0  0  0
   16.1603   -9.8926   21.4776 H   0  0  0  0  0  0  0  0  0  0  0  0
   19.1960  -13.9380   20.9450 C   0  0  0  0  0  0  0  0  0  0  0  0
   18.7950  -14.6196   20.1948 H   0  0  0  0  0  0  0  0  0  0  0  0
   19.8116  -14.4958   21.6507 H   0  0  0  0  0  0  0  0  0  0  0  0
   19.9680  -12.7630   20.3060 C   0  0  0  0  0  0  0  0  0  0  0  0
   20.5502  -13.0956   19.4466 H   0  0  0  0  0  0  0  0  0  0  0  0
   20.6288  -12.2862   21.0299 H   0  0  0  0  0  0  0  0  0  0  0  0
   18.8250  -11.8030   19.8720 C   0  0  0  0  0  0  0  0  0  0  0  0
   18.3460  -12.1535   18.9578 H   0  0  0  0  0  0  0  0  0  0  0  0
   19.2007  -10.7911   19.7204 H   0  0  0  0  0  0  0  0  0  0  0  0
   17.8420  -11.8580   21.0720 C   0  0  3  0  0  0  0  0  0  0  0  0
   17.9592  -11.0457   21.7893 H   0  0  0  0  0  0  0  0  0  0  0  0
   16.4070  -11.7530   20.6010 C   0  0  0  0  0  0  0  0  0  0  0  0
   14.3830  -10.4310   20.3370 C   0  0  0  0  0  0  0  0  0  0  0  0
   14.1390  -11.2847   19.7048 H   0  0  0  0  0  0  0  0  0  0  0  0
   14.3483   -9.5176   19.7433 H   0  0  0  0  0  0  0  0  0  0  0  0
   13.3610  -10.3350   21.4880 C   0  0  0  0  0  0  0  0  0  0  0  0
   13.3210   -9.2280   22.3550 C   0  0  0  0  0  0  0  0  0  0  0  0
   14.0083   -8.4354   22.2105 H   0  0  0  0  0  0  0  0  0  0  0  0
   12.4035   -9.1439   23.3966 C   0  0  0  0  0  0  0  0  0  0  0  0
   11.4997  -10.1797   23.5893 C   0  0  0  0  0  0  0  0  0  0  0  0
   10.7923  -10.1323   24.3765 H   0  0  0  0  0  0  0  0  0  0  0  0
   11.5189  -11.2844   22.7486 C   0  0  0  0  0  0  0  0  0  0  0  0
   10.8197  -12.0635   22.9110 H   0  0  0  0  0  0  0  0  0  0  0  0
   12.4394  -11.3763   21.7041 C   0  0  0  0  0  0  0  0  0  0  0  0
   12.3977  -12.6230   20.8362 C   0  0  0  0  0  0  0  0  0  0  0  0
   11.6433  -13.3120   21.2148 H   0  0  0  0  0  0  0  0  0  0  0  0
   13.3771  -13.0996   20.8713 H   0  0  0  0  0  0  0  0  0  0  0  0
   12.1415  -12.3275   19.8189 H   0  0  0  0  0  0  0  0  0  0  0  0
   19.5690  -14.3360   24.7730 C   0  0  0  0  0  0  0  0  0  0  0  0
   20.6610  -14.8710   24.0720 C   0  0  0  0  0  0  0  0  0  0  0  0
   20.5331  -15.7448   23.4503 H   0  0  0  0  0  0  0  0  0  0  0  0
   21.9200  -14.2620   24.1850 C   0  0  0  0  0  0  0  0  0  0  0  0
   22.7694  -14.6974   23.6797 H   0  0  0  0  0  0  0  0  0  0  0  0
   22.0890  -13.1080   24.9370 C   0  0  0  0  0  0  0  0  0  0  0  0
   23.0406  -12.5972   24.9342 H   0  0  0  0  0  0  0  0  0  0  0  0
   21.0200  -12.6010   25.7050 C   0  0  0  0  0  0  0  0  0  0  0  0
   21.1708  -11.7861   26.3975 H   0  0  0  0  0  0  0  0  0  0  0  0
   19.7620  -13.1830   25.5440 C   0  0  0  0  0  0  0  0  0  0  0  0
   18.9102  -12.7299   26.0294 H   0  0  0  0  0  0  0  0  0  0  0  0
  1  2  1  0  0  0  0
  1  3  1  0  0  0  0
  1  4  1  0  0  0  0
  1 38  1  0  0  0  0
  5  6  1  0  0  0  0
  5  7  1  0  0  0  0
  5 13  1  0  0  0  0
  5 48  1  0  0  0  0
  8  9  1  0  0  0  0
  8 10  1  0  0  0  0
  8 11  1  0  0  0  0
  8 13  1  0  0  0  0
 12 17  2  0  0  0  0
 13 14  1  0  0  0  0
 13 17  1  0  0  0  0
 15 17  1  0  0  0  0
 15 20  1  0  0  0  0
 15 29  1  0  0  0  0
 16 31  2  0  0  0  0
 18 19  1  0  0  0  0
 18 31  1  0  0  0  0
 18 32  1  0  0  0  0
 20 21  1  0  0  0  0
 20 22  1  0  0  0  0
 20 23  1  0  0  0  0
 23 24  1  0  0  0  0
 23 25  1  0  0  0  0
 23 26  1  0  0  0  0
 26 27  1  0  0  0  0
 26 28  1  0  0  0  0
 26 29  1  0  0  0  0
 29 30  1  0  0  0  0
 29 31  1  0  0  0  0
 32 33  1  0  0  0  0
 32 34  1  0  0  0  0
 32 35  1  0  0  0  0
 35 36  1  0  0  0  0
 35 43  2  0  0  0  0
 36 37  1  0  0  0  0
 36 38  2  0  0  0  0
 38 39  1  0  0  0  0
 39 40  1  0  0  0  0
 39 41  2  0  0  0  0
 41 42  1  0  0  0  0
 41 43  1  0  0  0  0
 43 44  1  0  0  0  0
 44 45  1  0  0  0  0
 44 46  1  0  0  0  0
 44 47  1  0  0  0  0
 48 49  1  0  0  0  0
 48 57  2  0  0  0  0
 49 50  1  0  0  0  0
 49 51  2  0  0  0  0
 51 52  1  0  0  0  0
 51 53  1  0  0  0  0
 53 54  1  0  0  0  0
 53 55  2  0  0  0  0
 55 56  1  0  0  0  0
 55 57  1  0  0  0  0
 57 58  1  0  0  0  0
M  CHG  1   8   1
M  END
$$$$
thrombin_baum_22_7b.H
  MOE2024           3D
thrombin_baum_22_7b
 52 54  0  0  1  0  0  0  0  0999 V2000
   18.1650  -14.9590   24.7060 C   0  0  0  0  0  0  0  0  0  0  0  0
   18.2120  -15.9731   25.1029 H   0  0  0  0  0  0  0  0  0  0  0  0
   17.4867  -14.3615   25.3151 H   0  0  0  0  0  0  0  0  0  0  0  0
   16.2910  -15.7020   23.2200 N   0  3  0  0  0  0  0  0  0  0  0  0
   16.3826  -16.6365   23.5920 H   0  0  0  0  0  0  0  0  0  0  0  0
   15.9691  -15.7503   22.2639 H   0  0  0  0  0  0  0  0  0  0  0  0
   15.6245  -15.1831   23.7738 H   0  0  0  0  0  0  0  0  0  0  0  0
   16.4750  -12.9720   23.1170 O   0  0  0  0  0  0  0  0  0  0  0  0
   17.6190  -15.0150   23.2650 C   0  0  3  0  0  0  0  0  0  0  0  0
   18.3410  -15.5731   22.6688 H   0  0  0  0  0  0  0  0  0  0  0  0
   18.1320  -13.1740   21.6230 N   0  0  0  0  0  0  0  0  0  0  0  0
   15.8790  -12.6740   19.9880 O   0  0  0  0  0  0  0  0  0  0  0  0
   17.4490  -13.6090   22.6980 C   0  0  0  0  0  0  0  0  0  0  0  0
   15.7410  -10.6040   20.8960 N   0  0  0  0  0  0  0  0  0  0  0  0
   16.1603   -9.8926   21.4776 H   0  0  0  0  0  0  0  0  0  0  0  0
   19.1960  -13.9380   20.9450 C   0  0  0  0  0  0  0  0  0  0  0  0
   18.7950  -14.6196   20.1948 H   0  0  0  0  0  0  0  0  0  0  0  0
   19.8116  -14.4958   21.6507 H   0  0  0  0  0  0  0  0  0  0  0  0
   19.9680  -12.7630   20.3060 C   0  0  0  0  0  0  0  0  0  0  0  0
   20.5502  -13.0956   19.4466 H   0  0  0  0  0  0  0  0  0  0  0  0
   20.6288  -12.2862   21.0299 H   0  0  0  0  0  0  0  0  0  0  0  0
   18.8250  -11.8030   19.8720 C   0  0  0  0  0  0  0  0  0  0  0  0
   18.3460  -12.1535   18.9578 H   0  0  0  0  0  0  0  0  0  0  0  0
   19.2007  -10.7911   19.7204 H   0  0  0  0  0  0  0  0  0  0  0  0
   17.8420  -11.8580   21.0720 C   0  0  3  0  0  0  0  0  0  0  0  0
   17.9592  -11.0457   21.7893 H   0  0  0  0  0  0  0  0  0  0  0  0
   16.4070  -11.7530   20.6010 C   0  0  0  0  0  0  0  0  0  0  0  0
   14.3830  -10.4310   20.3370 C   0  0  0  0  0  0  0  0  0  0  0  0
   14.1390  -11.2847   19.7048 H   0  0  0  0  0  0  0  0  0  0  0  0
   14.3483   -9.5176   19.7433 H   0  0  0  0  0  0  0  0  0  0  0  0
   13.3610  -10.3350   21.4880 C   0  0  0  0  0  0  0  0  0  0  0  0
   13.3210   -9.2280   22.3550 C   0  0  0  0  0  0  0  0  0  0  0  0
   14.0013   -8.4264   22.2200 H   0  0  0  0  0  0  0  0  0  0  0  0
   12.3932   -9.1752   23.3897 C   0  0  0  0  0  0  0  0  0  0  0  0
   12.3614   -8.3423   24.0432 H   0  0  0  0  0  0  0  0  0  0  0  0
   11.4952  -10.2265   23.5709 C   0  0  0  0  0  0  0  0  0  0  0  0
   10.3394  -10.1646   24.8608 Cl  0  0  0  0  0  0  0  0  0  0  0  0
   11.5264  -11.3286   22.7169 C   0  0  0  0  0  0  0  0  0  0  0  0
   10.8384  -12.1206   22.8618 H   0  0  0  0  0  0  0  0  0  0  0  0
   12.4569  -11.3808   21.6840 C   0  0  0  0  0  0  0  0  0  0  0  0
   12.4787  -12.2244   21.0415 H   0  0  0  0  0  0  0  0  0  0  0  0
   19.5690  -14.3360   24.7730 C   0  0  0  0  0  0  0  0  0  0  0  0
   20.6610  -14.8710   24.0720 C   0  0  0  0  0  0  0  0  0  0  0  0
   20.5331  -15.7448   23.4503 H   0  0  0  0  0  0  0  0  0  0  0  0
   21.9200  -14.2620   24.1850 C   0  0  0  0  0  0  0  0  0  0  0  0
   22.7694  -14.6974   23.6797 H   0  0  0  0  0  0  0  0  0  0  0  0
   22.0890  -13.1080   24.9370 C   0  0  0  0  0  0  0  0  0  0  0  0
   23.0406  -12.5972   24.9342 H   0  0  0  0  0  0  0  0  0  0  0  0
   21.0200  -12.6010   25.7050 C   0  0  0  0  0  0  0  0  0  0  0  0
   21.1708  -11.7861   26.3975 H   0  0  0  0  0  0  0  0  0  0  0  0
   19.7620  -13.1830   25.5440 C   0  0  0  0  0  0  0  0  0  0  0  0
   18.9102  -12.7299   26.0294 H   0  0  0  0  0  0  0  0  0  0  0  0
  1  2  1  0  0  0  0
  1  3  1  0  0  0  0
  1  9  1  0  0  0  0
  1 42  1  0  0  0  0
  4  5  1  0  0  0  0
  4  6  1  0  0  0  0
  4  7  1  0  0  0  0
  4  9  1  0  0  0  0
  8 13  2  0  0  0  0
  9 10  1  0  0  0  0
  9 13  1  0  0  0  0
 11 13  1  0  0  0  0
 11 16  1  0  0  0  0
 11 25  1  0  0  0  0
 12 27  2  0  0  0  0
 14 15  1  0  0  0  0
 14 27  1  0  0  0  0
 14 28  1  0  0  0  0
 16 17  1  0  0  0  0
 16 18  1  0  0  0  0
 16 19  1  0  0  0  0
 19 20  1  0  0  0  0
 19 21  1  0  0  0  0
 19 22  1  0  0  0  0
 22 23  1  0  0  0  0
 22 24  1  0  0  0  0
 22 25  1  0  0  0  0
 25 26  1  0  0  0  0
 25 27  1  0  0  0  0
 28 29  1  0  0  0  0
 28 30  1  0  0  0  0
 28 31  1  0  0  0  0
 31 32  1  0  0  0  0
 31 40  2  0  0  0  0
 32 33  1  0  0  0  0
 32 34  2  0  0  0  0
 34 35  1  0  0  0  0
 34 36  1  0  0  0  0
 36 37  1  0  0  0  0
 36 38  2  0  0  0  0
 38 39  1  0  0  0  0
 38 40  1  0  0  0  0
 40 41  1  0  0  0  0
 42 43  1  0  0  0  0
 42 51  2  0  0  0  0
 43 44  1  0  0  0  0
 43 45  2  0  0  0  0
 45 46  1  0  0  0  0
 45 47  1  0  0  0  0
 47 48  1  0  0  0  0
 47 49  2  0  0  0  0
 49 50  1  0  0  0  0
 49 51  1  0  0  0  0
 51 52  1  0  0  0  0
M  CHG  1   4   1
M  END
$$$$
thrombin_baum_23_7c.H
  MOE2024           3D
thrombin_baum_23_7c
 52 54  0  0  1  0  0  0  0  0999 V2000
   18.1650  -14.9590   24.7060 C   0  0  0  0  0  0  0  0  0  0  0  0
   18.2120  -15.9731   25.1029 H   0  0  0  0  0  0  0  0  0  0  0  0
   17.4867  -14.3615   25.3151 H   0  0  0  0  0  0  0  0  0  0  0  0
   16.2910  -15.7020   23.2200 N   0  3  0  0  0  0  0  0  0  0  0  0
   16.3826  -16.6365   23.5920 H   0  0  0  0  0  0  0  0  0  0  0  0
   15.9691  -15.7503   22.2639 H   0  0  0  0  0  0  0  0  0  0  0  0
   15.6245  -15.1831   23.7738 H   0  0  0  0  0  0  0  0  0  0  0  0
   16.4750  -12.9720   23.1170 O   0  0  0  0  0  0  0  0  0  0  0  0
   17.6190  -15.0150   23.2650 C   0  0  3  0  0  0  0  0  0  0  0  0
   18.3410  -15.5731   22.6688 H   0  0  0  0  0  0  0  0  0  0  0  0
   18.1320  -13.1740   21.6230 N   0  0  0  0  0  0  0  0  0  0  0  0
   15.8790  -12.6740   19.9880 O   0  0  0  0  0  0  0  0  0  0  0  0
   17.4490  -13.6090   22.6980 C   0  0  0  0  0  0  0  0  0  0  0  0
   15.7410  -10.6040   20.8960 N   0  0  0  0  0  0  0  0  0  0  0  0
   16.1603   -9.8926   21.4776 H   0  0  0  0  0  0  0  0  0  0  0  0
   19.1960  -13.9380   20.9450 C   0  0  0  0  0  0  0  0  0  0  0  0
   18.7950  -14.6196   20.1948 H   0  0  0  0  0  0  0  0  0  0  0  0
   19.8116  -14.4958   21.6507 H   0  0  0  0  0  0  0  0  0  0  0  0
   19.9680  -12.7630   20.3060 C   0  0  0  0  0  0  0  0  0  0  0  0
   20.5502  -13.0956   19.4466 H   0  0  0  0  0  0  0  0  0  0  0  0
   20.6288  -12.2862   21.0299 H   0  0  0  0  0  0  0  0  0  0  0  0
   18.8250  -11.8030   19.8720 C   0  0  0  0  0  0  0  0  0  0  0  0
   18.3460  -12.1535   18.9578 H   0  0  0  0  0  0  0  0  0  0  0  0
   19.2007  -10.7911   19.7204 H   0  0  0  0  0  0  0  0  0  0  0  0
   17.8420  -11.8580   21.0720 C   0  0  3  0  0  0  0  0  0  0  0  0
   17.9592  -11.0457   21.7893 H   0  0  0  0  0  0  0  0  0  0  0  0
   16.4070  -11.7530   20.6010 C   0  0  0  0  0  0  0  0  0  0  0  0
   14.3830  -10.4310   20.3370 C   0  0  0  0  0  0  0  0  0  0  0  0
   14.1390  -11.2847   19.7048 H   0  0  0  0  0  0  0  0  0  0  0  0
   14.3483   -9.5176   19.7433 H   0  0  0  0  0  0  0  0  0  0  0  0
   13.3610  -10.3350   21.4880 C   0  0  0  0  0  0  0  0  0  0  0  0
   13.3210   -9.2280   22.3550 C   0  0  0  0  0  0  0  0  0  0  0  0
   14.0013   -8.4264   22.2200 H   0  0  0  0  0  0  0  0  0  0  0  0
   12.3932   -9.1752   23.3897 C   0  0  0  0  0  0  0  0  0  0  0  0
   12.3614   -8.3423   24.0432 H   0  0  0  0  0  0  0  0  0  0  0  0
   11.4952  -10.2265   23.5709 C   0  0  0  0  0  0  0  0  0  0  0  0
   10.8579  -10.1924   24.2821 H   0  0  0  0  0  0  0  0  0  0  0  0
   11.5264  -11.3286   22.7169 C   0  0  0  0  0  0  0  0  0  0  0  0
   10.8384  -12.1206   22.8618 H   0  0  0  0  0  0  0  0  0  0  0  0
   12.4569  -11.3808   21.6840 C   0  0  0  0  0  0  0  0  0  0  0  0
   12.4930  -12.7754   20.6218 Cl  0  0  0  0  0  0  0  0  0  0  0  0
   19.5690  -14.3360   24.7730 C   0  0  0  0  0  0  0  0  0  0  0  0
   20.6610  -14.8710   24.0720 C   0  0  0  0  0  0  0  0  0  0  0  0
   20.5331  -15.7448   23.4503 H   0  0  0  0  0  0  0  0  0  0  0  0
   21.9200  -14.2620   24.1850 C   0  0  0  0  0  0  0  0  0  0  0  0
   22.7694  -14.6974   23.6797 H   0  0  0  0  0  0  0  0  0  0  0  0
   22.0890  -13.1080   24.9370 C   0  0  0  0  0  0  0  0  0  0  0  0
   23.0406  -12.5972   24.9342 H   0  0  0  0  0  0  0  0  0  0  0  0
   21.0200  -12.6010   25.7050 C   0  0  0  0  0  0  0  0  0  0  0  0
   21.1708  -11.7861   26.3975 H   0  0  0  0  0  0  0  0  0  0  0  0
   19.7620  -13.1830   25.5440 C   0  0  0  0  0  0  0  0  0  0  0  0
   18.9102  -12.7299   26.0294 H   0  0  0  0  0  0  0  0  0  0  0  0
  1  2  1  0  0  0  0
  1  3  1  0  0  0  0
  1  9  1  0  0  0  0
  1 42  1  0  0  0  0
  4  5  1  0  0  0  0
  4  6  1  0  0  0  0
  4  7  1  0  0  0  0
  4  9  1  0  0  0  0
  8 13  2  0  0  0  0
  9 10  1  0  0  0  0
  9 13  1  0  0  0  0
 11 13  1  0  0  0  0
 11 16  1  0  0  0  0
 11 25  1  0  0  0  0
 12 27  2  0  0  0  0
 14 15  1  0  0  0  0
 14 27  1  0  0  0  0
 14 28  1  0  0  0  0
 16 17  1  0  0  0  0
 16 18  1  0  0  0  0
 16 19  1  0  0  0  0
 19 20  1  0  0  0  0
 19 21  1  0  0  0  0
 19 22  1  0  0  0  0
 22 23  1  0  0  0  0
 22 24  1  0  0  0  0
 22 25  1  0  0  0  0
 25 26  1  0  0  0  0
 25 27  1  0  0  0  0
 28 29  1  0  0  0  0
 28 30  1  0  0  0  0
 28 31  1  0  0  0  0
 31 32  1  0  0  0  0
 31 40  2  0  0  0  0
 32 33  1  0  0  0  0
 32 34  2  0  0  0  0
 34 35  1  0  0  0  0
 34 36  1  0  0  0  0
 36 37  1  0  0  0  0
 36 38  2  0  0  0  0
 38 39  1  0  0  0  0
 38 40  1  0  0  0  0
 40 41  1  0  0  0  0
 42 43  1  0  0  0  0
 42 51  2  0  0  0  0
 43 44  1  0  0  0  0
 43 45  2  0  0  0  0
 45 46  1  0  0  0  0
 45 47  1  0  0  0  0
 47 48  1  0  0  0  0
 47 49  2  0  0  0  0
 49 50  1  0  0  0  0
 49 51  1  0  0  0  0
 51 52  1  0  0  0  0
M  CHG  1   4   1
M  END
$$$$
thrombin_baum_24_7d_r.H
  MOE2024           3D
thrombin_baum_24_7d_r
 60 62  0  0  1  0  0  0  0  0999 V2000
   18.1650  -14.9590   24.7060 C   0  0  0  0  0  0  0  0  0  0  0  0
   18.2120  -15.9731   25.1029 H   0  0  0  0  0  0  0  0  0  0  0  0
   17.4867  -14.3615   25.3151 H   0  0  0  0  0  0  0  0  0  0  0  0
   16.2910  -15.7020   23.2200 N   0  3  0  0  0  0  0  0  0  0  0  0
   16.3826  -16.6365   23.5920 H   0  0  0  0  0  0  0  0  0  0  0  0
   15.9691  -15.7503   22.2639 H   0  0  0  0  0  0  0  0  0  0  0  0
   15.6245  -15.1831   23.7738 H   0  0  0  0  0  0  0  0  0  0  0  0
   16.4750  -12.9720   23.1170 O   0  0  0  0  0  0  0  0  0  0  0  0
   17.6190  -15.0150   23.2650 C   0  0  3  0  0  0  0  0  0  0  0  0
   18.3410  -15.5731   22.6688 H   0  0  0  0  0  0  0  0  0  0  0  0
   18.1320  -13.1740   21.6230 N   0  0  0  0  0  0  0  0  0  0  0  0
   15.8790  -12.6740   19.9880 O   0  0  0  0  0  0  0  0  0  0  0  0
   17.4490  -13.6090   22.6980 C   0  0  0  0  0  0  0  0  0  0  0  0
   15.7410  -10.6040   20.8960 N   0  0  0  0  0  0  0  0  0  0  0  0
   16.1603   -9.8926   21.4776 H   0  0  0  0  0  0  0  0  0  0  0  0
   19.1960  -13.9380   20.9450 C   0  0  0  0  0  0  0  0  0  0  0  0
   18.7950  -14.6196   20.1948 H   0  0  0  0  0  0  0  0  0  0  0  0
   19.8116  -14.4958   21.6507 H   0  0  0  0  0  0  0  0  0  0  0  0
   19.9680  -12.7630   20.3060 C   0  0  0  0  0  0  0  0  0  0  0  0
   20.5502  -13.0956   19.4466 H   0  0  0  0  0  0  0  0  0  0  0  0
   20.6288  -12.2862   21.0299 H   0  0  0  0  0  0  0  0  0  0  0  0
   18.8250  -11.8030   19.8720 C   0  0  0  0  0  0  0  0  0  0  0  0
   18.3460  -12.1535   18.9578 H   0  0  0  0  0  0  0  0  0  0  0  0
   19.2007  -10.7911   19.7204 H   0  0  0  0  0  0  0  0  0  0  0  0
   17.8420  -11.8580   21.0720 C   0  0  3  0  0  0  0  0  0  0  0  0
   17.9592  -11.0457   21.7893 H   0  0  0  0  0  0  0  0  0  0  0  0
   16.4070  -11.7530   20.6010 C   0  0  0  0  0  0  0  0  0  0  0  0
   14.3830  -10.4310   20.3370 C   0  0  0  0  0  0  0  0  0  0  0  0
   14.1390  -11.2847   19.7048 H   0  0  0  0  0  0  0  0  0  0  0  0
   14.3483   -9.5176   19.7433 H   0  0  0  0  0  0  0  0  0  0  0  0
   13.3610  -10.3350   21.4880 C   0  0  3  0  0  0  0  0  0  0  0  0
   12.4020  -10.3200   20.9644 H   0  0  0  0  0  0  0  0  0  0  0  0
   13.3210   -9.2280   22.3550 C   0  0  0  0  0  0  0  0  0  0  0  0
   13.2745   -8.3170   21.7573 H   0  0  0  0  0  0  0  0  0  0  0  0
   14.2428   -9.1978   22.9376 H   0  0  0  0  0  0  0  0  0  0  0  0
   12.1261   -9.2293   23.3199 C   0  0  3  0  0  0  0  0  0  0  0  0
   11.2004   -9.1945   22.7386 H   0  0  0  0  0  0  0  0  0  0  0  0
   12.1865   -8.0548   24.1963 N   0  0  0  0  0  0  0  0  0  0  0  0
   12.1787   -7.2092   23.6444 H   0  0  0  0  0  0  0  0  0  0  0  0
   13.0290   -8.0897   24.7517 H   0  0  0  0  0  0  0  0  0  0  0  0
   12.1208  -10.5020   24.1666 C   0  0  0  0  0  0  0  0  0  0  0  0
   12.9899  -10.5021   24.8256 H   0  0  0  0  0  0  0  0  0  0  0  0
   11.2183  -10.5218   24.7790 H   0  0  0  0  0  0  0  0  0  0  0  0
   12.1651  -11.7412   23.2639 C   0  0  0  0  0  0  0  0  0  0  0  0
   11.2413  -11.8008   22.6849 H   0  0  0  0  0  0  0  0  0  0  0  0
   12.2495  -12.6385   23.8786 H   0  0  0  0  0  0  0  0  0  0  0  0
   13.3646  -11.6489   22.3083 C   0  0  0  0  0  0  0  0  0  0  0  0
   14.2809  -11.7035   22.8959 H   0  0  0  0  0  0  0  0  0  0  0  0
   13.3440  -12.5046   21.6309 H   0  0  0  0  0  0  0  0  0  0  0  0
   19.5690  -14.3360   24.7730 C   0  0  0  0  0  0  0  0  0  0  0  0
   20.6610  -14.8710   24.0720 C   0  0  0  0  0  0  0  0  0  0  0  0
   20.5331  -15.7448   23.4503 H   0  0  0  0  0  0  0  0  0  0  0  0
   21.9200  -14.2620   24.1850 C   0  0  0  0  0  0  0  0  0  0  0  0
   22.7694  -14.6974   23.6797 H   0  0  0  0  0  0  0  0  0  0  0  0
   22.0890  -13.1080   24.9370 C   0  0  0  0  0  0  0  0  0  0  0  0
   23.0406  -12.5972   24.9342 H   0  0  0  0  0  0  0  0  0  0  0  0
   21.0200  -12.6010   25.7050 C   0  0  0  0  0  0  0  0  0  0  0  0
   21.1708  -11.7861   26.3975 H   0  0  0  0  0  0  0  0  0  0  0  0
   19.7620  -13.1830   25.5440 C   0  0  0  0  0  0  0  0  0  0  0  0
   18.9102  -12.7299   26.0294 H   0  0  0  0  0  0  0  0  0  0  0  0
  1  2  1  0  0  0  0
  1  3  1  0  0  0  0
  1  9  1  0  0  0  0
  1 50  1  0  0  0  0
  4  5  1  0  0  0  0
  4  6  1  0  0  0  0
  4  7  1  0  0  0  0
  4  9  1  0  0  0  0
  8 13  2  0  0  0  0
  9 10  1  0  0  0  0
  9 13  1  0  0  0  0
 11 13  1  0  0  0  0
 11 16  1  0  0  0  0
 11 25  1  0  0  0  0
 12 27  2  0  0  0  0
 14 15  1  0  0  0  0
 14 27  1  0  0  0  0
 14 28  1  0  0  0  0
 16 17  1  0  0  0  0
 16 18  1  0  0  0  0
 16 19  1  0  0  0  0
 19 20  1  0  0  0  0
 19 21  1  0  0  0  0
 19 22  1  0  0  0  0
 22 23  1  0  0  0  0
 22 24  1  0  0  0  0
 22 25  1  0  0  0  0
 25 26  1  0  0  0  0
 25 27  1  0  0  0  0
 28 29  1  0  0  0  0
 28 30  1  0  0  0  0
 28 31  1  0  0  0  0
 31 32  1  0  0  0  0
 31 33  1  0  0  0  0
 31 47  1  0  0  0  0
 33 34  1  0  0  0  0
 33 35  1  0  0  0  0
 33 36  1  0  0  0  0
 36 37  1  0  0  0  0
 36 38  1  0  0  0  0
 36 41  1  0  0  0  0
 38 39  1  0  0  0  0
 38 40  1  0  0  0  0
 41 42  1  0  0  0  0
 41 43  1  0  0  0  0
 41 44  1  0  0  0  0
 44 45  1  0  0  0  0
 44 46  1  0  0  0  0
 44 47  1  0  0  0  0
 47 48  1  0  0  0  0
 47 49  1  0  0  0  0
 50 51  1  0  0  0  0
 50 59  2  0  0  0  0
 51 52  1  0  0  0  0
 51 53  2  0  0  0  0
 53 54  1  0  0  0  0
 53 55  1  0  0  0  0
 55 56  1  0  0  0  0
 55 57  2  0  0  0  0
 57 58  1  0  0  0  0
 57 59  1  0  0  0  0
 59 60  1  0  0  0  0
M  CHG  1   4   1
M  END
$$$$
thrombin_baum_25_7e.H
  MOE2024           3D
thrombin_baum_25_7e
 56 58  0  0  1  0  0  0  0  0999 V2000
   18.3810  -12.0990   21.1990 C   0  0  3  0  0  0  0  0  0  0  0  0
   18.4683  -11.2678   21.8987 H   0  0  0  0  0  0  0  0  0  0  0  0
   18.5130  -13.4040   21.8000 N   0  0  0  0  0  0  0  0  0  0  0  0
   19.4730  -12.1720   20.0910 C   0  0  0  0  0  0  0  0  0  0  0  0
   19.8701  -11.1849   19.8543 H   0  0  0  0  0  0  0  0  0  0  0  0
   19.0913  -12.6375   19.1823 H   0  0  0  0  0  0  0  0  0  0  0  0
   20.5340  -13.0610   20.7830 C   0  0  0  0  0  0  0  0  0  0  0  0
   21.0844  -12.4955   21.5349 H   0  0  0  0  0  0  0  0  0  0  0  0
   21.2325  -13.4716   20.0539 H   0  0  0  0  0  0  0  0  0  0  0  0
   19.6960  -14.1880   21.4420 C   0  0  0  0  0  0  0  0  0  0  0  0
   19.4606  -14.9878   20.7399 H   0  0  0  0  0  0  0  0  0  0  0  0
   20.1903  -14.6075   22.3182 H   0  0  0  0  0  0  0  0  0  0  0  0
   17.6870  -15.1680   23.3960 C   0  0  3  0  0  0  0  0  0  0  0  0
   18.4164  -15.7499   22.8326 H   0  0  0  0  0  0  0  0  0  0  0  0
   19.6100  -14.5760   24.9350 C   0  0  0  0  0  0  0  0  0  0  0  0
   17.0340  -12.0140   20.5020 C   0  0  0  0  0  0  0  0  0  0  0  0
   20.6810  -15.3870   24.5470 C   0  0  0  0  0  0  0  0  0  0  0  0
   20.4968  -16.3907   24.1933 H   0  0  0  0  0  0  0  0  0  0  0  0
   21.9860  -14.9020   24.6160 C   0  0  0  0  0  0  0  0  0  0  0  0
   22.8065  -15.5356   24.3131 H   0  0  0  0  0  0  0  0  0  0  0  0
   22.2460  -13.6120   25.0700 C   0  0  0  0  0  0  0  0  0  0  0  0
   23.2594  -13.2420   25.1201 H   0  0  0  0  0  0  0  0  0  0  0  0
   21.1720  -12.8010   25.4610 C   0  0  0  0  0  0  0  0  0  0  0  0
   21.3544  -11.7980   25.8175 H   0  0  0  0  0  0  0  0  0  0  0  0
   19.8740  -13.2870   25.3900 C   0  0  0  0  0  0  0  0  0  0  0  0
   19.0535  -12.6536   25.6933 H   0  0  0  0  0  0  0  0  0  0  0  0
   16.3870  -15.8760   23.3200 N   0  3  0  0  0  0  0  0  0  0  0  0
   15.6904  -15.3571   23.8353 H   0  0  0  0  0  0  0  0  0  0  0  0
   16.4825  -16.7990   23.7187 H   0  0  0  0  0  0  0  0  0  0  0  0
   16.1023  -15.9543   22.3541 H   0  0  0  0  0  0  0  0  0  0  0  0
   17.6210  -13.8070   22.7500 C   0  0  0  0  0  0  0  0  0  0  0  0
   16.5880  -12.9770   19.8920 O   0  0  0  0  0  0  0  0  0  0  0  0
   16.4180  -10.8100   20.5750 N   0  0  0  0  0  0  0  0  0  0  0  0
   16.7970  -10.0273   21.0887 H   0  0  0  0  0  0  0  0  0  0  0  0
   15.1400  -10.7460   19.8340 C   0  0  0  0  0  0  0  0  0  0  0  0
   15.0315  -11.6176   19.1886 H   0  0  0  0  0  0  0  0  0  0  0  0
   15.0962   -9.8394   19.2305 H   0  0  0  0  0  0  0  0  0  0  0  0
   14.0340  -10.7310   20.9050 C   0  0  0  0  0  0  0  0  0  0  0  0
   13.6110  -11.9270   21.4720 C   0  0  0  0  0  0  0  0  0  0  0  0
   14.0617  -12.8561   21.1558 H   0  0  0  0  0  0  0  0  0  0  0  0
   12.6097  -11.9291   22.4377 C   0  0  0  0  0  0  0  0  0  0  0  0
   12.2834  -12.8434   22.8617 H   0  0  0  0  0  0  0  0  0  0  0  0
   12.0333  -10.7306   22.8461 C   0  0  0  0  0  0  0  0  0  0  0  0
   11.2691  -10.7404   23.5810 H   0  0  0  0  0  0  0  0  0  0  0  0
   12.4581   -9.5239   22.2919 C   0  0  0  0  0  0  0  0  0  0  0  0
   11.8355   -8.2162   22.7294 C   0  0  0  0  0  0  0  0  0  0  0  0
   11.0029   -7.8503   21.6218 O   0  0  0  0  0  0  0  0  0  0  0  0
   10.7764   -8.6563   21.1263 H   0  0  0  0  0  0  0  0  0  0  0  0
   12.6063   -7.4701   22.8714 H   0  0  0  0  0  0  0  0  0  0  0  0
   11.2248   -8.3711   23.6094 H   0  0  0  0  0  0  0  0  0  0  0  0
   13.4578   -9.5315   21.3197 C   0  0  0  0  0  0  0  0  0  0  0  0
   13.7776   -8.6157   20.8916 H   0  0  0  0  0  0  0  0  0  0  0  0
   16.7250  -13.0450   23.1010 O   0  0  0  0  0  0  0  0  0  0  0  0
   18.1780  -15.0780   24.8690 C   0  0  0  0  0  0  0  0  0  0  0  0
   18.1257  -16.0674   25.3234 H   0  0  0  0  0  0  0  0  0  0  0  0
   17.5338  -14.3914   25.4183 H   0  0  0  0  0  0  0  0  0  0  0  0
  1  2  1  0  0  0  0
  1  3  1  0  0  0  0
  1  4  1  0  0  0  0
  1 16  1  0  0  0  0
  3 10  1  0  0  0  0
  3 31  1  0  0  0  0
  4  5  1  0  0  0  0
  4  6  1  0  0  0  0
  4  7  1  0  0  0  0
  7  8  1  0  0  0  0
  7  9  1  0  0  0  0
  7 10  1  0  0  0  0
 10 11  1  0  0  0  0
 10 12  1  0  0  0  0
 13 14  1  0  0  0  0
 13 27  1  0  0  0  0
 13 31  1  0  0  0  0
 13 54  1  0  0  0  0
 15 17  1  0  0  0  0
 15 25  2  0  0  0  0
 15 54  1  0  0  0  0
 16 32  2  0  0  0  0
 16 33  1  0  0  0  0
 17 18  1  0  0  0  0
 17 19  2  0  0  0  0
 19 20  1  0  0  0  0
 19 21  1  0  0  0  0
 21 22  1  0  0  0  0
 21 23  2  0  0  0  0
 23 24  1  0  0  0  0
 23 25  1  0  0  0  0
 25 26  1  0  0  0  0
 27 28  1  0  0  0  0
 27 29  1  0  0  0  0
 27 30  1  0  0  0  0
 31 53  2  0  0  0  0
 33 34  1  0  0  0  0
 33 35  1  0  0  0  0
 35 36  1  0  0  0  0
 35 37  1  0  0  0  0
 35 38  1  0  0  0  0
 38 39  1  0  0  0  0
 38 51  2  0  0  0  0
 39 40  1  0  0  0  0
 39 41  2  0  0  0  0
 41 42  1  0  0  0  0
 41 43  1  0  0  0  0
 43 44  1  0  0  0  0
 43 45  2  0  0  0  0
 45 46  1  0  0  0  0
 45 51  1  0  0  0  0
 46 47  1  0  0  0  0
 46 49  1  0  0  0  0
 46 50  1  0  0  0  0
 47 48  1  0  0  0  0
 51 52  1  0  0  0  0
 54 55  1  0  0  0  0
 54 56  1  0  0  0  0
M  CHG  1  27   1
M  END
$$$$
thrombin_baum_26_7f.H
  MOE2024           3D
thrombin_baum_26_7f
 56 58  0  0  1  0  0  0  0  0999 V2000
   18.3810  -12.0990   21.1990 C   0  0  3  0  0  0  0  0  0  0  0  0
   18.4683  -11.2678   21.8987 H   0  0  0  0  0  0  0  0  0  0  0  0
   18.5130  -13.4040   21.8000 N   0  0  0  0  0  0  0  0  0  0  0  0
   19.4730  -12.1720   20.0910 C   0  0  0  0  0  0  0  0  0  0  0  0
   19.8701  -11.1849   19.8543 H   0  0  0  0  0  0  0  0  0  0  0  0
   19.0913  -12.6375   19.1823 H   0  0  0  0  0  0  0  0  0  0  0  0
   20.5340  -13.0610   20.7830 C   0  0  0  0  0  0  0  0  0  0  0  0
   21.0844  -12.4955   21.5349 H   0  0  0  0  0  0  0  0  0  0  0  0
   21.2325  -13.4716   20.0539 H   0  0  0  0  0  0  0  0  0  0  0  0
   19.6960  -14.1880   21.4420 C   0  0  0  0  0  0  0  0  0  0  0  0
   19.4606  -14.9878   20.7399 H   0  0  0  0  0  0  0  0  0  0  0  0
   20.1903  -14.6075   22.3182 H   0  0  0  0  0  0  0  0  0  0  0  0
   17.6870  -15.1680   23.3960 C   0  0  3  0  0  0  0  0  0  0  0  0
   18.4164  -15.7499   22.8326 H   0  0  0  0  0  0  0  0  0  0  0  0
   19.6100  -14.5760   24.9350 C   0  0  0  0  0  0  0  0  0  0  0  0
   17.0340  -12.0140   20.5020 C   0  0  0  0  0  0  0  0  0  0  0  0
   20.6810  -15.3870   24.5470 C   0  0  0  0  0  0  0  0  0  0  0  0
   20.4968  -16.3907   24.1933 H   0  0  0  0  0  0  0  0  0  0  0  0
   21.9860  -14.9020   24.6160 C   0  0  0  0  0  0  0  0  0  0  0  0
   22.8065  -15.5356   24.3131 H   0  0  0  0  0  0  0  0  0  0  0  0
   22.2460  -13.6120   25.0700 C   0  0  0  0  0  0  0  0  0  0  0  0
   23.2594  -13.2420   25.1201 H   0  0  0  0  0  0  0  0  0  0  0  0
   21.1720  -12.8010   25.4610 C   0  0  0  0  0  0  0  0  0  0  0  0
   21.3544  -11.7980   25.8175 H   0  0  0  0  0  0  0  0  0  0  0  0
   19.8740  -13.2870   25.3900 C   0  0  0  0  0  0  0  0  0  0  0  0
   19.0535  -12.6536   25.6933 H   0  0  0  0  0  0  0  0  0  0  0  0
   16.3870  -15.8760   23.3200 N   0  3  0  0  0  0  0  0  0  0  0  0
   15.6904  -15.3571   23.8353 H   0  0  0  0  0  0  0  0  0  0  0  0
   16.4825  -16.7990   23.7187 H   0  0  0  0  0  0  0  0  0  0  0  0
   16.1023  -15.9543   22.3541 H   0  0  0  0  0  0  0  0  0  0  0  0
   17.6210  -13.8070   22.7500 C   0  0  0  0  0  0  0  0  0  0  0  0
   16.5880  -12.9770   19.8920 O   0  0  0  0  0  0  0  0  0  0  0  0
   16.4180  -10.8100   20.5750 N   0  0  0  0  0  0  0  0  0  0  0  0
   16.7970  -10.0273   21.0887 H   0  0  0  0  0  0  0  0  0  0  0  0
   15.1400  -10.7460   19.8340 C   0  0  0  0  0  0  0  0  0  0  0  0
   15.0315  -11.6176   19.1886 H   0  0  0  0  0  0  0  0  0  0  0  0
   15.0962   -9.8394   19.2305 H   0  0  0  0  0  0  0  0  0  0  0  0
   14.0340  -10.7310   20.9050 C   0  0  0  0  0  0  0  0  0  0  0  0
   13.6110  -11.9270   21.4720 C   0  0  0  0  0  0  0  0  0  0  0  0
   14.0617  -12.8561   21.1558 H   0  0  0  0  0  0  0  0  0  0  0  0
   12.6174  -11.9334   22.4454 C   0  0  0  0  0  0  0  0  0  0  0  0
   12.3024  -12.8510   22.8715 H   0  0  0  0  0  0  0  0  0  0  0  0
   12.0382  -10.7386   22.8672 C   0  0  0  0  0  0  0  0  0  0  0  0
   10.9664  -10.7518   23.9354 C   0  0  0  0  0  0  0  0  0  0  0  0
   10.2586  -11.5468   23.7390 H   0  0  0  0  0  0  0  0  0  0  0  0
   10.5029   -9.7766   24.0090 H   0  0  0  0  0  0  0  0  0  0  0  0
   11.6941  -11.0340   25.1381 O   0  0  0  0  0  0  0  0  0  0  0  0
   12.5997  -10.6945   25.0351 H   0  0  0  0  0  0  0  0  0  0  0  0
   12.4673   -9.5374   22.3046 C   0  0  0  0  0  0  0  0  0  0  0  0
   12.0399   -8.6196   22.6187 H   0  0  0  0  0  0  0  0  0  0  0  0
   13.4597   -9.5335   21.3280 C   0  0  0  0  0  0  0  0  0  0  0  0
   13.7774   -8.6136   20.9083 H   0  0  0  0  0  0  0  0  0  0  0  0
   16.7250  -13.0450   23.1010 O   0  0  0  0  0  0  0  0  0  0  0  0
   18.1780  -15.0780   24.8690 C   0  0  0  0  0  0  0  0  0  0  0  0
   18.1257  -16.0674   25.3234 H   0  0  0  0  0  0  0  0  0  0  0  0
   17.5338  -14.3914   25.4183 H   0  0  0  0  0  0  0  0  0  0  0  0
  1  2  1  0  0  0  0
  1  3  1  0  0  0  0
  1  4  1  0  0  0  0
  1 16  1  0  0  0  0
  3 10  1  0  0  0  0
  3 31  1  0  0  0  0
  4  5  1  0  0  0  0
  4  6  1  0  0  0  0
  4  7  1  0  0  0  0
  7  8  1  0  0  0  0
  7  9  1  0  0  0  0
  7 10  1  0  0  0  0
 10 11  1  0  0  0  0
 10 12  1  0  0  0  0
 13 14  1  0  0  0  0
 13 27  1  0  0  0  0
 13 31  1  0  0  0  0
 13 54  1  0  0  0  0
 15 17  1  0  0  0  0
 15 25  2  0  0  0  0
 15 54  1  0  0  0  0
 16 32  2  0  0  0  0
 16 33  1  0  0  0  0
 17 18  1  0  0  0  0
 17 19  2  0  0  0  0
 19 20  1  0  0  0  0
 19 21  1  0  0  0  0
 21 22  1  0  0  0  0
 21 23  2  0  0  0  0
 23 24  1  0  0  0  0
 23 25  1  0  0  0  0
 25 26  1  0  0  0  0
 27 28  1  0  0  0  0
 27 29  1  0  0  0  0
 27 30  1  0  0  0  0
 31 53  2  0  0  0  0
 33 34  1  0  0  0  0
 33 35  1  0  0  0  0
 35 36  1  0  0  0  0
 35 37  1  0  0  0  0
 35 38  1  0  0  0  0
 38 39  1  0  0  0  0
 38 51  2  0  0  0  0
 39 40  1  0  0  0  0
 39 41  2  0  0  0  0
 41 42  1  0  0  0  0
 41 43  1  0  0  0  0
 43 44  1  0  0  0  0
 43 49  2  0  0  0  0
 44 45  1  0  0  0  0
 44 46  1  0  0  0  0
 44 47  1  0  0  0  0
 47 48  1  0  0  0  0
 49 50  1  0  0  0  0
 49 51  1  0  0  0  0
 51 52  1  0  0  0  0
 54 55  1  0  0  0  0
 54 56  1  0  0  0  0
M  CHG  1  27   1
M  END
$$$$
