thrombin_baum_01_1a_1zdv.H_813
     RDKit          3D

 52 54  0  0  1  0  0  0  0  0999 V2000
   12.8173  -12.3292   20.4519 C   0  0  0  0  0  0  0  0  0  0  0  0
   13.1938  -13.3377   20.3604 H   0  0  0  0  0  0  0  0  0  0  0  0
   13.5963  -11.2504   20.0023 C   0  0  0  0  0  0  0  0  0  0  0  0
   14.9613  -11.4710   19.4227 C   0  0  0  0  0  0  0  0  0  0  0  0
   15.1990  -10.5814   18.7983 H   0  0  0  0  0  0  0  0  0  0  0  0
   14.9113  -12.3381   18.7232 H   0  0  0  0  0  0  0  0  0  0  0  0
   16.8904  -12.6382   20.3722 C   0  0  0  0  0  0  0  0  0  0  0  0
   17.9695  -12.6870   21.4273 C   0  0  1  0  0  0  0  0  0  0  0  0
   17.7962  -11.9207   22.1998 H   0  0  0  0  0  0  0  0  0  0  0  0
   16.9377  -14.5883   22.6541 C   0  0  0  0  0  0  0  0  0  0  0  0
   17.0003  -15.9779   23.2348 C   0  0  1  0  0  0  0  0  0  0  0  0
   17.8104  -16.5825   22.7851 H   0  0  0  0  0  0  0  0  0  0  0  0
   17.1777  -15.8982   24.7823 C   0  0  0  0  0  0  0  0  0  0  0  0
   17.0095  -16.9000   25.2330 H   0  0  0  0  0  0  0  0  0  0  0  0
   16.4426  -15.1943   25.2317 H   0  0  0  0  0  0  0  0  0  0  0  0
   18.5815  -15.4793   25.1668 C   0  0  0  0  0  0  0  0  0  0  0  0
   16.0026  -11.6241   20.4072 N   0  0  0  0  0  0  0  0  0  0  0  0
   16.0416  -10.9219   21.1130 H   0  0  0  0  0  0  0  0  0  0  0  0
   19.6095  -16.4367   25.2299 C   0  0  0  0  0  0  0  0  0  0  0  0
   19.4004  -17.4771   25.0296 H   0  0  0  0  0  0  0  0  0  0  0  0
   20.9180  -16.0537   25.5466 C   0  0  0  0  0  0  0  0  0  0  0  0
   21.7036  -16.7941   25.5836 H   0  0  0  0  0  0  0  0  0  0  0  0
   21.2059  -14.7130   25.8279 C   0  0  0  0  0  0  0  0  0  0  0  0
   22.2140  -14.4184   26.0802 H   0  0  0  0  0  0  0  0  0  0  0  0
   20.1856  -13.7544   25.7853 C   0  0  0  0  0  0  0  0  0  0  0  0
   20.4076  -12.7203   26.0042 H   0  0  0  0  0  0  0  0  0  0  0  0
   18.8788  -14.1346   25.4518 C   0  0  0  0  0  0  0  0  0  0  0  0
   18.1002  -13.3872   25.4115 H   0  0  0  0  0  0  0  0  0  0  0  0
   19.3264  -14.6404   21.8467 C   0  0  0  0  0  0  0  0  0  0  0  0
   19.2437  -15.3204   20.9844 H   0  0  0  0  0  0  0  0  0  0  0  0
   19.6624  -15.2197   22.7168 H   0  0  0  0  0  0  0  0  0  0  0  0
   18.0228  -14.0047   22.0491 N   0  0  0  0  0  0  0  0  0  0  0  0
   20.2662  -13.4758   21.5549 C   0  0  0  0  0  0  0  0  0  0  0  0
   21.1605  -13.7671   20.9892 H   0  0  0  0  0  0  0  0  0  0  0  0
   20.6117  -13.0258   22.4999 H   0  0  0  0  0  0  0  0  0  0  0  0
   19.3656  -12.4882   20.8027 C   0  0  0  0  0  0  0  0  0  0  0  0
   19.7213  -11.4521   20.8720 H   0  0  0  0  0  0  0  0  0  0  0  0
   19.3780  -12.7501   19.7309 H   0  0  0  0  0  0  0  0  0  0  0  0
   13.1083   -9.9417   20.1373 C   0  0  0  0  0  0  0  0  0  0  0  0
   13.7073   -9.1083   19.8036 H   0  0  0  0  0  0  0  0  0  0  0  0
   11.8543   -9.7423   20.7085 C   0  0  0  0  0  0  0  0  0  0  0  0
   11.0671  -10.8041   21.1492 C   0  0  0  0  0  0  0  0  0  0  0  0
   10.0960  -10.6328   21.5882 H   0  0  0  0  0  0  0  0  0  0  0  0
   11.5558  -12.1106   21.0182 C   0  0  0  0  0  0  0  0  0  0  0  0
   10.9617  -12.9461   21.3575 H   0  0  0  0  0  0  0  0  0  0  0  0
   15.7428  -16.6902   22.8787 N   0  0  0  0  0  0  0  0  0  0  0  0
   14.9291  -16.1495   23.2372 H   0  0  0  0  0  0  0  0  0  0  0  0
   15.7429  -17.6419   23.2976 H   0  0  0  0  0  0  0  0  0  0  0  0
   15.6708  -16.7672   21.8435 H   0  0  0  0  0  0  0  0  0  0  0  0
   16.8491  -13.5475   19.5463 O   0  0  0  0  0  0  0  0  0  0  0  0
   15.8551  -14.0061   22.7211 O   0  0  0  0  0  0  0  0  0  0  0  0
   11.3850   -8.4753   20.8411 F   0  0  0  0  0  0  0  0  0  0  0  0
  1  2  1  0
  1  3  2  0
  1 44  1  0
  3  4  1  0
  3 39  1  0
  4  5  1  0
  4  6  1  0
  4 17  1  0
  7  8  1  0
  7 17  1  0
  7 50  2  0
  8  9  1  1
  8 32  1  0
  8 36  1  0
 10 11  1  0
 10 32  1  0
 10 51  2  0
 11 12  1  6
 11 13  1  0
 11 46  1  0
 13 14  1  0
 13 15  1  0
 13 16  1  0
 16 19  2  0
 16 27  1  0
 17 18  1  0
 19 20  1  0
 19 21  1  0
 21 22  1  0
 21 23  2  0
 23 24  1  0
 23 25  1  0
 25 26  1  0
 25 27  2  0
 27 28  1  0
 29 30  1  0
 29 31  1  0
 29 32  1  0
 29 33  1  0
 33 34  1  0
 33 35  1  0
 33 36  1  0
 36 37  1  0
 36 38  1  0
 39 40  1  0
 39 41  2  0
 41 42  1  0
 41 52  1  0
 42 43  1  0
 42 44  2  0
 44 45  1  0
 46 47  1  0
 46 48  1  0
 46 49  1  0
M  CHG  1  46   1
M  END
> <intraLJ>
19.958    

> <intraEL>
3.829     

> <intraDihe>
14.686    

> <interLJ>
0.000     

> <interEJ>
0.000     

> <gridLJ>
-7.510    

> <gridEL>
0.000     

> <totalE>
30.962    

> <LGFE>
-7.510  

> <LE>
-0.278  

> <SMILES>
[NH3+][C@H](Cc1ccccc1)C(=O)N1CCC[C@H]1C(=O)NCc1cccc(F)c1

> <atom.dprop.GFE>
-0.2545 0.0000 -0.0945 0.0529 0.0000 0.0000 0.0000 -0.1945 0.0000 0.0000 -0.1339 0.0000 -0.1945 0.0000 0.0000 -0.0918 -0.2810 0.0000 -0.1288 0.0000 -0.1844 0.0000 -0.2231 0.0000 -0.2179 0.0000 -0.0676 0.0000 -0.5062 0.0000 0.0000 0.0220 -0.4832 0.0000 0.0000 -0.5435 0.0000 0.0000 -0.0189 0.0000 -0.1298 -0.2483 0.0000 -0.2320 0.0000 -1.8750 0.0000 0.0000 0.0000 0.0930 -0.0990 -1.4760

> <atom.prop.CLASS>
BENC NCLA BENC PRPC NCLA NCLA NCLA PRPC NCLA NCLA PRPC NCLA PRPC NCLA NCLA BENC FORN NCLA BENC NCLA BENC NCLA BENC NCLA BENC NCLA BENC NCLA PRPC NCLA NCLA GEHC PRPC NCLA NCLA PRPC NCLA NCLA BENC NCLA BENC BENC NCLA BENC NCLA MAMN NCLA NCLA NCLA FORO FORO FLBX

> <cluster_id>
1

> <rmsd_to_cluster_rep>
0.00    

> <ligRMSD>
1.67    

> <ligCOMD>
0.94    

$$$$
thrombin_baum_02_1b_2zc9.H_507
     RDKit          3D

 52 54  0  0  1  0  0  0  0  0999 V2000
   11.1544   -8.4768   20.8092 Cl  0  0  0  0  0  0  0  0  0  0  0  0
   18.1473  -15.3496   24.8341 C   0  0  0  0  0  0  0  0  0  0  0  0
   18.2214  -16.3114   25.3863 H   0  0  0  0  0  0  0  0  0  0  0  0
   17.2859  -14.7839   25.2545 H   0  0  0  0  0  0  0  0  0  0  0  0
   16.7125  -16.4863   23.1226 N   0  0  0  0  0  0  0  0  0  0  0  0
   16.8169  -17.3796   23.6437 H   0  0  0  0  0  0  0  0  0  0  0  0
   16.5921  -16.6866   22.1086 H   0  0  0  0  0  0  0  0  0  0  0  0
   15.8749  -15.9741   23.4685 H   0  0  0  0  0  0  0  0  0  0  0  0
   16.6500  -13.7257   22.8314 O   0  0  0  0  0  0  0  0  0  0  0  0
   17.9172  -15.6348   23.3181 C   0  0  1  0  0  0  0  0  0  0  0  0
   18.7674  -16.2108   22.9037 H   0  0  0  0  0  0  0  0  0  0  0  0
   18.5064  -13.9480   21.5582 N   0  0  0  0  0  0  0  0  0  0  0  0
   16.4956  -13.9500   19.7353 O   0  0  0  0  0  0  0  0  0  0  0  0
   17.6662  -14.3627   22.5546 C   0  0  0  0  0  0  0  0  0  0  0  0
   16.2212  -11.7004   19.8451 N   0  0  0  0  0  0  0  0  0  0  0  0
   16.5656  -10.8171   20.1518 H   0  0  0  0  0  0  0  0  0  0  0  0
   19.7644  -14.5914   21.1701 C   0  0  0  0  0  0  0  0  0  0  0  0
   19.5271  -15.4155   20.4793 H   0  0  0  0  0  0  0  0  0  0  0  0
   20.3219  -15.0030   22.0199 H   0  0  0  0  0  0  0  0  0  0  0  0
   20.5386  -13.4795   20.4729 C   0  0  0  0  0  0  0  0  0  0  0  0
   21.3042  -13.8476   19.7782 H   0  0  0  0  0  0  0  0  0  0  0  0
   21.0502  -12.8501   21.2192 H   0  0  0  0  0  0  0  0  0  0  0  0
   19.4243  -12.6798   19.7846 C   0  0  0  0  0  0  0  0  0  0  0  0
   19.1808  -13.1670   18.8253 H   0  0  0  0  0  0  0  0  0  0  0  0
   19.7229  -11.6508   19.5465 H   0  0  0  0  0  0  0  0  0  0  0  0
   18.2455  -12.7507   20.7722 C   0  0  1  0  0  0  0  0  0  0  0  0
   18.2730  -11.8677   21.4316 H   0  0  0  0  0  0  0  0  0  0  0  0
   16.9121  -12.8397   20.0593 C   0  0  0  0  0  0  0  0  0  0  0  0
   14.9681  -11.6729   19.1312 C   0  0  0  0  0  0  0  0  0  0  0  0
   14.8071  -12.5967   18.5275 H   0  0  0  0  0  0  0  0  0  0  0  0
   15.0000  -10.8315   18.4042 H   0  0  0  0  0  0  0  0  0  0  0  0
   13.7592  -11.4585   19.9962 C   0  0  0  0  0  0  0  0  0  0  0  0
   13.0962  -10.2190   19.9837 C   0  0  0  0  0  0  0  0  0  0  0  0
   13.4484   -9.4260   19.3417 H   0  0  0  0  0  0  0  0  0  0  0  0
   11.9809  -10.0082   20.8069 C   0  0  0  0  0  0  0  0  0  0  0  0
   11.5254  -11.0340   21.6427 C   0  0  0  0  0  0  0  0  0  0  0  0
   10.6661  -10.8692   22.2755 H   0  0  0  0  0  0  0  0  0  0  0  0
   12.1841  -12.2691   21.6635 C   0  0  0  0  0  0  0  0  0  0  0  0
   11.8321  -13.0572   22.3127 H   0  0  0  0  0  0  0  0  0  0  0  0
   13.2999  -12.4803   20.8447 C   0  0  0  0  0  0  0  0  0  0  0  0
   13.8087  -13.4328   20.8671 H   0  0  0  0  0  0  0  0  0  0  0  0
   19.4278  -14.5870   25.1135 C   0  0  0  0  0  0  0  0  0  0  0  0
   20.6779  -15.2326   25.0932 C   0  0  0  0  0  0  0  0  0  0  0  0
   20.7415  -16.2887   24.8772 H   0  0  0  0  0  0  0  0  0  0  0  0
   21.8534  -14.5100   25.3394 C   0  0  0  0  0  0  0  0  0  0  0  0
   22.8110  -15.0086   25.3076 H   0  0  0  0  0  0  0  0  0  0  0  0
   21.7861  -13.1443   25.6420 C   0  0  0  0  0  0  0  0  0  0  0  0
   22.6909  -12.5892   25.8416 H   0  0  0  0  0  0  0  0  0  0  0  0
   20.5438  -12.5006   25.6948 C   0  0  0  0  0  0  0  0  0  0  0  0
   20.4901  -11.4489   25.9350 H   0  0  0  0  0  0  0  0  0  0  0  0
   19.3718  -13.2169   25.4238 C   0  0  0  0  0  0  0  0  0  0  0  0
   18.4194  -12.7082   25.4562 H   0  0  0  0  0  0  0  0  0  0  0  0
  1 35  1  0
  2  3  1  0
  2  4  1  0
  2 10  1  0
  2 42  1  0
  5  6  1  0
  5  7  1  0
  5  8  1  0
  5 10  1  0
  9 14  2  0
 10 11  1  6
 10 14  1  0
 12 14  1  0
 12 17  1  0
 12 26  1  0
 13 28  2  0
 15 16  1  0
 15 28  1  0
 15 29  1  0
 17 18  1  0
 17 19  1  0
 17 20  1  0
 20 21  1  0
 20 22  1  0
 20 23  1  0
 23 24  1  0
 23 25  1  0
 23 26  1  0
 26 27  1  1
 26 28  1  0
 29 30  1  0
 29 31  1  0
 29 32  1  0
 32 33  2  0
 32 40  1  0
 33 34  1  0
 33 35  1  0
 35 36  2  0
 36 37  1  0
 36 38  1  0
 38 39  1  0
 38 40  2  0
 40 41  1  0
 42 43  2  0
 42 51  1  0
 43 44  1  0
 43 45  1  0
 45 46  1  0
 45 47  2  0
 47 48  1  0
 47 49  1  0
 49 50  1  0
 49 51  2  0
 51 52  1  0
M  CHG  1   5   1
M  END
> <intraLJ>
20.045    

> <intraEL>
4.035     

> <intraDihe>
14.383    

> <interLJ>
0.000     

> <interEJ>
0.000     

> <gridLJ>
-6.844    

> <gridEL>
0.000     

> <totalE>
31.619    

> <LGFE>
-6.844  

> <LE>
-0.253  

> <SMILES>
[NH3+][C@H](Cc1ccccc1)C(=O)N1CCC[C@H]1C(=O)NCc1cccc(Cl)c1

> <atom.dprop.GFE>
-1.5330 -0.2394 0.0000 0.0000 -1.5070 0.0000 0.0000 0.0000 0.5990 -0.2661 0.0000 -0.1688 0.0930 0.0000 -0.6140 0.0000 -0.5062 0.0000 0.0000 -0.5788 0.0000 0.0000 -0.6357 0.0000 0.0000 -0.4692 0.0000 0.0000 0.0529 0.0000 0.0000 -0.0945 -0.0189 0.0000 -0.1309 -0.2483 0.0000 -0.1460 0.0000 -0.1288 0.0000 -0.1468 -0.2131 0.0000 -0.2231 0.0000 0.1147 0.0000 0.0551 0.0000 0.1097 0.0000

> <atom.prop.CLASS>
CLBX PRPC NCLA NCLA MAMN NCLA NCLA NCLA FORO PRPC NCLA GEHC FORO NCLA FORN NCLA PRPC NCLA NCLA PRPC NCLA NCLA PRPC NCLA NCLA PRPC NCLA NCLA PRPC NCLA NCLA BENC BENC NCLA BENC BENC NCLA BENC NCLA BENC NCLA BENC BENC NCLA BENC NCLA BENC NCLA BENC NCLA BENC NCLA

> <cluster_id>
1

> <rmsd_to_cluster_rep>
0.00    

> <ligRMSD>
1.53    

> <ligCOMD>
0.83    

$$$$
thrombin_baum_03_1c.H_780
     RDKit          3D

 52 54  0  0  1  0  0  0  0  0999 V2000
   13.1511  -12.7221   20.4417 C   0  0  0  0  0  0  0  0  0  0  0  0
   13.5163  -13.6923   20.1384 H   0  0  0  0  0  0  0  0  0  0  0  0
   13.7988  -11.5568   19.9987 C   0  0  0  0  0  0  0  0  0  0  0  0
   15.0175  -11.6437   19.1246 C   0  0  0  0  0  0  0  0  0  0  0  0
   14.9926  -10.7647   18.4433 H   0  0  0  0  0  0  0  0  0  0  0  0
   14.9219  -12.5445   18.4740 H   0  0  0  0  0  0  0  0  0  0  0  0
   16.9923  -12.7367   20.0791 C   0  0  0  0  0  0  0  0  0  0  0  0
   18.3043  -12.5961   20.8138 C   0  0  1  0  0  0  0  0  0  0  0  0
   18.2912  -11.7121   21.4714 H   0  0  0  0  0  0  0  0  0  0  0  0
   17.7199  -14.2679   22.5601 C   0  0  0  0  0  0  0  0  0  0  0  0
   17.9756  -15.5643   23.2855 C   0  0  1  0  0  0  0  0  0  0  0  0
   18.8686  -16.0906   22.8987 H   0  0  0  0  0  0  0  0  0  0  0  0
   18.1232  -15.2968   24.8150 C   0  0  0  0  0  0  0  0  0  0  0  0
   18.2199  -16.2614   25.3584 H   0  0  0  0  0  0  0  0  0  0  0  0
   17.2295  -14.7684   25.2148 H   0  0  0  0  0  0  0  0  0  0  0  0
   19.3688  -14.4949   25.1294 C   0  0  0  0  0  0  0  0  0  0  0  0
   16.2675  -11.6238   19.8422 N   0  0  0  0  0  0  0  0  0  0  0  0
   16.5782  -10.7274   20.1467 H   0  0  0  0  0  0  0  0  0  0  0  0
   20.6390  -15.0722   24.9553 C   0  0  0  0  0  0  0  0  0  0  0  0
   20.7332  -16.0947   24.6208 H   0  0  0  0  0  0  0  0  0  0  0  0
   21.7975  -14.3279   25.2058 C   0  0  0  0  0  0  0  0  0  0  0  0
   22.7695  -14.7759   25.0599 H   0  0  0  0  0  0  0  0  0  0  0  0
   21.6963  -13.0068   25.6576 C   0  0  0  0  0  0  0  0  0  0  0  0
   22.5902  -12.4348   25.8587 H   0  0  0  0  0  0  0  0  0  0  0  0
   20.4356  -12.4285   25.8523 C   0  0  0  0  0  0  0  0  0  0  0  0
   20.3578  -11.4099   26.2030 H   0  0  0  0  0  0  0  0  0  0  0  0
   19.2755  -13.1677   25.5853 C   0  0  0  0  0  0  0  0  0  0  0  0
   18.3075  -12.7105   25.7283 H   0  0  0  0  0  0  0  0  0  0  0  0
   19.8270  -14.4343   21.1828 C   0  0  0  0  0  0  0  0  0  0  0  0
   19.5691  -15.2551   20.4955 H   0  0  0  0  0  0  0  0  0  0  0  0
   20.4018  -14.8492   22.0212 H   0  0  0  0  0  0  0  0  0  0  0  0
   18.5819  -13.7888   21.6049 N   0  0  0  0  0  0  0  0  0  0  0  0
   20.5985  -13.3280   20.4710 C   0  0  0  0  0  0  0  0  0  0  0  0
   21.3334  -13.7040   19.7476 H   0  0  0  0  0  0  0  0  0  0  0  0
   21.1491  -12.7203   21.2074 H   0  0  0  0  0  0  0  0  0  0  0  0
   19.4858  -12.4909   19.8279 C   0  0  0  0  0  0  0  0  0  0  0  0
   19.7917  -11.4541   19.6369 H   0  0  0  0  0  0  0  0  0  0  0  0
   19.2416  -12.9289   18.8451 H   0  0  0  0  0  0  0  0  0  0  0  0
   13.3221  -10.2992   20.4104 C   0  0  0  0  0  0  0  0  0  0  0  0
   13.8232   -9.4023   20.0794 H   0  0  0  0  0  0  0  0  0  0  0  0
   12.2039  -10.2015   21.2526 C   0  0  0  0  0  0  0  0  0  0  0  0
   11.5608  -11.3716   21.6814 C   0  0  0  0  0  0  0  0  0  0  0  0
   10.6991  -11.3028   22.3283 H   0  0  0  0  0  0  0  0  0  0  0  0
   12.0317  -12.6286   21.2773 C   0  0  0  0  0  0  0  0  0  0  0  0
   11.5325  -13.5250   21.6145 H   0  0  0  0  0  0  0  0  0  0  0  0
   16.8364  -16.4829   23.0143 N   0  0  0  0  0  0  0  0  0  0  0  0
   15.9504  -16.0287   23.3173 H   0  0  0  0  0  0  0  0  0  0  0  0
   16.9678  -17.3745   23.5328 H   0  0  0  0  0  0  0  0  0  0  0  0
   16.7864  -16.6795   21.9937 H   0  0  0  0  0  0  0  0  0  0  0  0
   16.6275  -13.8665   19.7602 O   0  0  0  0  0  0  0  0  0  0  0  0
   16.6832  -13.6676   22.8438 O   0  0  0  0  0  0  0  0  0  0  0  0
   11.5525   -8.4925   21.8209 Br  0  0  0  0  0  0  0  0  0  0  0  0
  1  2  1  0
  1  3  2  0
  1 44  1  0
  3  4  1  0
  3 39  1  0
  4  5  1  0
  4  6  1  0
  4 17  1  0
  7  8  1  0
  7 17  1  0
  7 50  2  0
  8  9  1  1
  8 32  1  0
  8 36  1  0
 10 11  1  0
 10 32  1  0
 10 51  2  0
 11 12  1  6
 11 13  1  0
 11 46  1  0
 13 14  1  0
 13 15  1  0
 13 16  1  0
 16 19  2  0
 16 27  1  0
 17 18  1  0
 19 20  1  0
 19 21  1  0
 21 22  1  0
 21 23  2  0
 23 24  1  0
 23 25  1  0
 25 26  1  0
 25 27  2  0
 27 28  1  0
 29 30  1  0
 29 31  1  0
 29 32  1  0
 29 33  1  0
 33 34  1  0
 33 35  1  0
 33 36  1  0
 36 37  1  0
 36 38  1  0
 39 40  1  0
 39 41  2  0
 41 42  1  0
 41 52  1  0
 42 43  1  0
 42 44  2  0
 44 45  1  0
 46 47  1  0
 46 48  1  0
 46 49  1  0
M  CHG  1  46   1
M  END
> <intraLJ>
20.238    

> <intraEL>
4.288     

> <intraDihe>
14.782    

> <interLJ>
0.000     

> <interEJ>
0.000     

> <gridLJ>
-5.016    

> <gridEL>
0.000     

> <totalE>
34.293    

> <LGFE>
-5.016  

> <LE>
-0.186  

> <SMILES>
[NH3+][C@H](Cc1ccccc1)C(=O)N1CCC[C@H]1C(=O)NCc1cccc(Br)c1

> <atom.dprop.GFE>
-0.1288 0.0000 -0.1399 0.0529 0.0000 0.0000 0.0000 -0.4692 0.0000 0.0000 -0.2661 0.0000 -0.2394 0.0000 0.0000 -0.1468 -0.6140 0.0000 -0.2131 0.0000 -0.1905 0.0000 0.1147 0.0000 0.1034 0.0000 0.1097 0.0000 -0.5345 0.0000 0.0000 -0.1688 -0.4582 0.0000 0.0000 -0.6357 0.0000 0.0000 -0.0189 0.0000 -0.1364 -0.2483 0.0000 -0.1867 0.0000 -1.5070 0.0000 0.0000 0.0000 0.0930 0.5990 0.2140

> <atom.prop.CLASS>
BENC NCLA BENC PRPC NCLA NCLA NCLA PRPC NCLA NCLA PRPC NCLA PRPC NCLA NCLA BENC FORN NCLA BENC NCLA BENC NCLA BENC NCLA BENC NCLA BENC NCLA PRPC NCLA NCLA GEHC PRPC NCLA NCLA PRPC NCLA NCLA BENC NCLA BENC BENC NCLA BENC NCLA MAMN NCLA NCLA NCLA FORO FORO BRBX

> <cluster_id>
1

> <rmsd_to_cluster_rep>
0.00    

> <ligRMSD>
1.33    

> <ligCOMD>
0.68    

$$$$
thrombin_baum_04_1d.H_1146
     RDKit          3D

 52 54  0  0  1  0  0  0  0  0999 V2000
   13.4848  -13.0099   20.9458 C   0  0  0  0  0  0  0  0  0  0  0  0
   13.9172  -13.9857   20.7798 H   0  0  0  0  0  0  0  0  0  0  0  0
   14.1019  -11.8669   20.4108 C   0  0  0  0  0  0  0  0  0  0  0  0
   15.3790  -11.9810   19.6284 C   0  0  0  0  0  0  0  0  0  0  0  0
   15.3880  -11.1435   18.8962 H   0  0  0  0  0  0  0  0  0  0  0  0
   15.3421  -12.9197   19.0272 H   0  0  0  0  0  0  0  0  0  0  0  0
   17.2724  -12.9825   20.8179 C   0  0  0  0  0  0  0  0  0  0  0  0
   18.5312  -12.7762   21.6263 C   0  0  1  0  0  0  0  0  0  0  0  0
   18.4662  -11.8514   22.2217 H   0  0  0  0  0  0  0  0  0  0  0  0
   17.8476  -14.3380   23.4372 C   0  0  0  0  0  0  0  0  0  0  0  0
   17.9589  -15.6835   24.1077 C   0  0  1  0  0  0  0  0  0  0  0  0
   18.8113  -16.2737   23.7215 H   0  0  0  0  0  0  0  0  0  0  0  0
   18.0815  -15.4988   25.6516 C   0  0  0  0  0  0  0  0  0  0  0  0
   18.0496  -16.4901   26.1531 H   0  0  0  0  0  0  0  0  0  0  0  0
   17.2395  -14.8891   26.0477 H   0  0  0  0  0  0  0  0  0  0  0  0
   19.3976  -14.8582   26.0399 C   0  0  0  0  0  0  0  0  0  0  0  0
   16.5757  -11.8954   20.4274 N   0  0  0  0  0  0  0  0  0  0  0  0
   16.8718  -10.9749   20.6674 H   0  0  0  0  0  0  0  0  0  0  0  0
   20.5748  -15.6269   26.0594 C   0  0  0  0  0  0  0  0  0  0  0  0
   20.5436  -16.6799   25.8220 H   0  0  0  0  0  0  0  0  0  0  0  0
   21.8029  -15.0367   26.3791 C   0  0  0  0  0  0  0  0  0  0  0  0
   22.7040  -15.6323   26.3820 H   0  0  0  0  0  0  0  0  0  0  0  0
   21.8614  -13.6771   26.7076 C   0  0  0  0  0  0  0  0  0  0  0  0
   22.8078  -13.2232   26.9623 H   0  0  0  0  0  0  0  0  0  0  0  0
   20.6916  -12.9068   26.7095 C   0  0  0  0  0  0  0  0  0  0  0  0
   20.7367  -11.8584   26.9652 H   0  0  0  0  0  0  0  0  0  0  0  0
   19.4644  -13.4934   26.3728 C   0  0  0  0  0  0  0  0  0  0  0  0
   18.5689  -12.8896   26.3668 H   0  0  0  0  0  0  0  0  0  0  0  0
   20.0429  -14.5655   22.2152 C   0  0  0  0  0  0  0  0  0  0  0  0
   19.8388  -15.4330   21.5683 H   0  0  0  0  0  0  0  0  0  0  0  0
   20.5646  -14.9169   23.1151 H   0  0  0  0  0  0  0  0  0  0  0  0
   18.7666  -13.9108   22.5111 N   0  0  0  0  0  0  0  0  0  0  0  0
   20.8497  -13.4978   21.4840 C   0  0  0  0  0  0  0  0  0  0  0  0
   21.6345  -13.9102   20.8368 H   0  0  0  0  0  0  0  0  0  0  0  0
   21.3447  -12.8358   22.2132 H   0  0  0  0  0  0  0  0  0  0  0  0
   19.7745  -12.7196   20.7153 C   0  0  0  0  0  0  0  0  0  0  0  0
   20.0829  -11.6935   20.4767 H   0  0  0  0  0  0  0  0  0  0  0  0
   19.6002  -13.2242   19.7497 H   0  0  0  0  0  0  0  0  0  0  0  0
   13.5373  -10.6001   20.6440 C   0  0  0  0  0  0  0  0  0  0  0  0
   14.0159   -9.7204   20.2414 H   0  0  0  0  0  0  0  0  0  0  0  0
   12.3614  -10.4712   21.3999 C   0  0  0  0  0  0  0  0  0  0  0  0
   11.7501  -11.6211   21.9215 C   0  0  0  0  0  0  0  0  0  0  0  0
   10.8446  -11.5315   22.5028 H   0  0  0  0  0  0  0  0  0  0  0  0
   12.3090  -12.8867   21.6954 C   0  0  0  0  0  0  0  0  0  0  0  0
   11.8333  -13.7663   22.1034 H   0  0  0  0  0  0  0  0  0  0  0  0
   16.7488  -16.4782   23.7621 N   0  0  0  0  0  0  0  0  0  0  0  0
   15.8994  -15.9567   24.0614 H   0  0  0  0  0  0  0  0  0  0  0  0
   16.7805  -17.4002   24.2416 H   0  0  0  0  0  0  0  0  0  0  0  0
   16.7135  -16.6240   22.7325 H   0  0  0  0  0  0  0  0  0  0  0  0
   16.9208  -14.1364   20.5816 O   0  0  0  0  0  0  0  0  0  0  0  0
   16.8746  -13.6462   23.7378 O   0  0  0  0  0  0  0  0  0  0  0  0
   11.5016   -8.5541   21.7618 I   0  0  0  0  0  0  0  0  0  0  0  0
  1  2  1  0
  1  3  2  0
  1 44  1  0
  3  4  1  0
  3 39  1  0
  4  5  1  0
  4  6  1  0
  4 17  1  0
  7  8  1  0
  7 17  1  0
  7 50  2  0
  8  9  1  1
  8 32  1  0
  8 36  1  0
 10 11  1  0
 10 32  1  0
 10 51  2  0
 11 12  1  6
 11 13  1  0
 11 46  1  0
 13 14  1  0
 13 15  1  0
 13 16  1  0
 16 19  2  0
 16 27  1  0
 17 18  1  0
 19 20  1  0
 19 21  1  0
 21 22  1  0
 21 23  2  0
 23 24  1  0
 23 25  1  0
 25 26  1  0
 25 27  2  0
 27 28  1  0
 29 30  1  0
 29 31  1  0
 29 32  1  0
 29 33  1  0
 33 34  1  0
 33 35  1  0
 33 36  1  0
 36 37  1  0
 36 38  1  0
 39 40  1  0
 39 41  2  0
 41 42  1  0
 41 52  1  0
 42 43  1  0
 42 44  2  0
 44 45  1  0
 46 47  1  0
 46 48  1  0
 46 49  1  0
M  CHG  1  46   1
M  END
> <intraLJ>
19.148    

> <intraEL>
4.050     

> <intraDihe>
15.342    

> <interLJ>
0.000     

> <interEJ>
0.000     

> <gridLJ>
-3.422    

> <gridEL>
0.000     

> <totalE>
35.118    

> <LGFE>
-3.422  

> <LE>
-0.127  

> <SMILES>
[NH3+][C@H](Cc1ccccc1)C(=O)N1CCC[C@H]1C(=O)NCc1cccc(I)c1

> <atom.dprop.GFE>
-0.0426 0.0000 -0.0646 0.0529 0.0000 0.0000 0.0000 -0.1945 0.0000 0.0000 -0.2907 0.0000 -0.2781 0.0000 0.0000 -0.0611 -0.2810 0.0000 -0.0985 0.0000 -0.1511 0.0000 -0.0516 0.0000 0.0855 0.0000 0.0297 0.0000 -0.4369 0.0000 0.0000 0.0220 -0.4832 0.0000 0.0000 -0.5435 0.0000 0.0000 -0.0945 0.0000 -0.1668 -0.1759 0.0000 -0.1867 0.0000 -1.5070 0.0000 0.0000 0.0000 0.0930 1.1890 0.2140

> <atom.prop.CLASS>
BENC NCLA BENC PRPC NCLA NCLA NCLA PRPC NCLA NCLA PRPC NCLA PRPC NCLA NCLA BENC FORN NCLA BENC NCLA BENC NCLA BENC NCLA BENC NCLA BENC NCLA PRPC NCLA NCLA GEHC PRPC NCLA NCLA PRPC NCLA NCLA BENC NCLA BENC BENC NCLA BENC NCLA MAMN NCLA NCLA NCLA FORO FORO BRBX

> <cluster_id>
1

> <rmsd_to_cluster_rep>
0.00    

> <ligRMSD>
1.67    

> <ligCOMD>
0.98    

$$$$
thrombin_baum_05_2a.H_291
     RDKit          3D

 55 57  0  0  1  0  0  0  0  0999 V2000
   13.3135  -13.0407   20.1823 C   0  0  0  0  0  0  0  0  0  0  0  0
   13.7612  -13.9362   19.7769 H   0  0  0  0  0  0  0  0  0  0  0  0
   13.8612  -11.7845   19.8831 C   0  0  0  0  0  0  0  0  0  0  0  0
   15.0901  -11.6626   19.0333 C   0  0  0  0  0  0  0  0  0  0  0  0
   14.9876  -10.7274   18.4393 H   0  0  0  0  0  0  0  0  0  0  0  0
   15.0943  -12.5000   18.2968 H   0  0  0  0  0  0  0  0  0  0  0  0
   17.0876  -12.6715   20.0188 C   0  0  0  0  0  0  0  0  0  0  0  0
   18.3772  -12.4848   20.7811 C   0  0  1  0  0  0  0  0  0  0  0  0
   18.3750  -11.5266   21.3251 H   0  0  0  0  0  0  0  0  0  0  0  0
   17.6695  -13.9126   22.6903 C   0  0  0  0  0  0  0  0  0  0  0  0
   17.8659  -15.1012   23.5963 C   0  0  1  0  0  0  0  0  0  0  0  0
   18.6329  -15.7987   23.2100 H   0  0  0  0  0  0  0  0  0  0  0  0
   18.2444  -14.6182   25.0301 C   0  0  0  0  0  0  0  0  0  0  0  0
   18.0914  -15.4436   25.7584 H   0  0  0  0  0  0  0  0  0  0  0  0
   17.6051  -13.7635   25.3441 H   0  0  0  0  0  0  0  0  0  0  0  0
   19.7030  -14.2216   25.1237 C   0  0  0  0  0  0  0  0  0  0  0  0
   16.3177  -11.5902   19.7844 N   0  0  0  0  0  0  0  0  0  0  0  0
   16.5766  -10.6849   20.1104 H   0  0  0  0  0  0  0  0  0  0  0  0
   20.6913  -15.2080   25.2895 C   0  0  0  0  0  0  0  0  0  0  0  0
   20.4157  -16.2486   25.3755 H   0  0  0  0  0  0  0  0  0  0  0  0
   22.0450  -14.8557   25.3385 C   0  0  0  0  0  0  0  0  0  0  0  0
   22.7984  -15.6207   25.4563 H   0  0  0  0  0  0  0  0  0  0  0  0
   22.4216  -13.5105   25.2475 C   0  0  0  0  0  0  0  0  0  0  0  0
   23.4657  -13.2375   25.2934 H   0  0  0  0  0  0  0  0  0  0  0  0
   21.4437  -12.5185   25.1006 C   0  0  0  0  0  0  0  0  0  0  0  0
   21.7344  -11.4806   25.0324 H   0  0  0  0  0  0  0  0  0  0  0  0
   20.0895  -12.8723   25.0345 C   0  0  0  0  0  0  0  0  0  0  0  0
   19.3429  -12.1017   24.9108 H   0  0  0  0  0  0  0  0  0  0  0  0
   19.8141  -14.3158   21.4253 C   0  0  0  0  0  0  0  0  0  0  0  0
   19.5462  -15.2031   20.8306 H   0  0  0  0  0  0  0  0  0  0  0  0
   20.3442  -14.6478   22.3276 H   0  0  0  0  0  0  0  0  0  0  0  0
   18.5829  -13.5800   21.7211 N   0  0  0  0  0  0  0  0  0  0  0  0
   20.6512  -13.3304   20.6171 C   0  0  0  0  0  0  0  0  0  0  0  0
   21.3967  -13.8153   19.9738 H   0  0  0  0  0  0  0  0  0  0  0  0
   21.1976  -12.6560   21.2964 H   0  0  0  0  0  0  0  0  0  0  0  0
   19.5937  -12.5419   19.8348 C   0  0  0  0  0  0  0  0  0  0  0  0
   19.9451  -11.5477   19.5300 H   0  0  0  0  0  0  0  0  0  0  0  0
   19.3662  -13.0898   18.9044 H   0  0  0  0  0  0  0  0  0  0  0  0
   13.2848  -10.6276   20.4256 C   0  0  0  0  0  0  0  0  0  0  0  0
   13.7283   -9.6697   20.1895 H   0  0  0  0  0  0  0  0  0  0  0  0
   12.1606  -10.7097   21.2723 C   0  0  0  0  0  0  0  0  0  0  0  0
   11.6089  -11.9807   21.5414 C   0  0  0  0  0  0  0  0  0  0  0  0
   10.7374  -12.0847   22.1731 H   0  0  0  0  0  0  0  0  0  0  0  0
   12.1853  -13.1366   21.0025 C   0  0  0  0  0  0  0  0  0  0  0  0
   11.7598  -14.1044   21.2241 H   0  0  0  0  0  0  0  0  0  0  0  0
   16.6023  -15.8876   23.6155 N   0  0  0  0  0  0  0  0  0  0  0  0
   15.8224  -15.2754   23.9316 H   0  0  0  0  0  0  0  0  0  0  0  0
   16.6970  -16.6961   24.2623 H   0  0  0  0  0  0  0  0  0  0  0  0
   16.3961  -16.2335   22.6561 H   0  0  0  0  0  0  0  0  0  0  0  0
   16.7801  -13.8104   19.6736 O   0  0  0  0  0  0  0  0  0  0  0  0
   16.6332  -13.2652   22.8396 O   0  0  0  0  0  0  0  0  0  0  0  0
   11.5576   -9.4776   21.8352 C   0  0  0  0  0  0  0  0  0  0  0  0
   12.4683   -8.5497   22.1826 F   0  0  0  0  0  0  0  0  0  0  0  0
   10.8304   -9.6895   22.9468 F   0  0  0  0  0  0  0  0  0  0  0  0
   10.7309   -8.8760   20.9640 F   0  0  0  0  0  0  0  0  0  0  0  0
  1  2  1  0
  1  3  2  0
  1 44  1  0
  3  4  1  0
  3 39  1  0
  4  5  1  0
  4  6  1  0
  4 17  1  0
  7  8  1  0
  7 17  1  0
  7 50  2  0
  8  9  1  1
  8 32  1  0
  8 36  1  0
 10 11  1  0
 10 32  1  0
 10 51  2  0
 11 12  1  6
 11 13  1  0
 11 46  1  0
 13 14  1  0
 13 15  1  0
 13 16  1  0
 16 19  2  0
 16 27  1  0
 17 18  1  0
 19 20  1  0
 19 21  1  0
 21 22  1  0
 21 23  2  0
 23 24  1  0
 23 25  1  0
 25 26  1  0
 25 27  2  0
 27 28  1  0
 29 30  1  0
 29 31  1  0
 29 32  1  0
 29 33  1  0
 33 34  1  0
 33 35  1  0
 33 36  1  0
 36 37  1  0
 36 38  1  0
 39 40  1  0
 39 41  2  0
 41 42  1  0
 41 52  1  0
 42 43  1  0
 42 44  2  0
 44 45  1  0
 46 47  1  0
 46 48  1  0
 46 49  1  0
 52 53  1  0
 52 54  1  0
 52 55  1  0
M  CHG  1  46   1
M  END
> <intraLJ>
22.176    

> <intraEL>
5.463     

> <intraDihe>
17.359    

> <interLJ>
0.000     

> <interEJ>
0.000     

> <gridLJ>
-7.318    

> <gridEL>
0.000     

> <totalE>
37.680    

> <LGFE>
-7.318  

> <LE>
-0.244  

> <SMILES>
[NH3+][C@H](Cc1ccccc1)C(=O)N1CCC[C@H]1C(=O)NCc1cccc(C(F)(F)F)c1

> <atom.dprop.GFE>
-0.1288 0.0000 -0.1399 0.0529 0.0000 0.0000 0.0000 -0.4692 0.0000 0.0000 -0.3197 0.0000 -0.1339 0.0000 0.0000 -0.0676 -0.6140 0.0000 -0.2131 0.0000 -0.1566 0.0000 -0.0631 0.0000 0.1147 0.0000 0.0551 0.0000 -0.5345 0.0000 0.0000 -0.1688 -0.4582 0.0000 0.0000 -0.6357 0.0000 0.0000 -0.0945 0.0000 -0.1668 -0.2320 0.0000 -0.1867 0.0000 -0.8020 0.0000 0.0000 0.0000 0.0930 0.4570 -2.5060 0.0000 0.0000 0.0000

> <atom.prop.CLASS>
BENC NCLA BENC PRPC NCLA NCLA NCLA PRPC NCLA NCLA PRPC NCLA PRPC NCLA NCLA BENC FORN NCLA BENC NCLA BENC NCLA BENC NCLA BENC NCLA BENC NCLA PRPC NCLA NCLA GEHC PRPC NCLA NCLA PRPC NCLA NCLA BENC NCLA BENC BENC NCLA BENC NCLA MAMN NCLA NCLA NCLA FORO FORO TFEC NCLA NCLA NCLA

> <cluster_id>
1

> <rmsd_to_cluster_rep>
0.00    

> <ligRMSD>
1.68    

> <ligCOMD>
0.77    

$$$$
thrombin_baum_06_2b.H_150
     RDKit          3D

 56 58  0  0  1  0  0  0  0  0999 V2000
   13.5103  -13.7954   20.0911 C   0  0  0  0  0  0  0  0  0  0  0  0
   14.1775  -14.5281   19.6611 H   0  0  0  0  0  0  0  0  0  0  0  0
   13.7217  -12.4284   19.8548 C   0  0  0  0  0  0  0  0  0  0  0  0
   14.8900  -11.9741   19.0292 C   0  0  0  0  0  0  0  0  0  0  0  0
   14.6129  -10.9942   18.5813 H   0  0  0  0  0  0  0  0  0  0  0  0
   15.0170  -12.6809   18.1758 H   0  0  0  0  0  0  0  0  0  0  0  0
   17.0062  -12.7938   19.9464 C   0  0  0  0  0  0  0  0  0  0  0  0
   18.2693  -12.4941   20.7167 C   0  0  1  0  0  0  0  0  0  0  0  0
   18.1920  -11.5235   21.2324 H   0  0  0  0  0  0  0  0  0  0  0  0
   17.6415  -13.9087   22.6634 C   0  0  0  0  0  0  0  0  0  0  0  0
   17.8695  -15.1071   23.5487 C   0  0  1  0  0  0  0  0  0  0  0  0
   18.7233  -15.7225   23.2074 H   0  0  0  0  0  0  0  0  0  0  0  0
   18.0879  -14.6450   25.0222 C   0  0  0  0  0  0  0  0  0  0  0  0
   18.1277  -15.5305   25.6926 H   0  0  0  0  0  0  0  0  0  0  0  0
   17.2514  -13.9961   25.3640 H   0  0  0  0  0  0  0  0  0  0  0  0
   19.4014  -13.9112   25.1942 C   0  0  0  0  0  0  0  0  0  0  0  0
   16.1094  -11.8015   19.7767 N   0  0  0  0  0  0  0  0  0  0  0  0
   16.2618  -10.8922   20.1544 H   0  0  0  0  0  0  0  0  0  0  0  0
   20.6056  -14.6334   25.2666 C   0  0  0  0  0  0  0  0  0  0  0  0
   20.5989  -15.7124   25.2244 H   0  0  0  0  0  0  0  0  0  0  0  0
   21.8288  -13.9639   25.3867 C   0  0  0  0  0  0  0  0  0  0  0  0
   22.7501  -14.5260   25.4316 H   0  0  0  0  0  0  0  0  0  0  0  0
   21.8571  -12.5663   25.4614 C   0  0  0  0  0  0  0  0  0  0  0  0
   22.8004  -12.0498   25.5622 H   0  0  0  0  0  0  0  0  0  0  0  0
   20.6616  -11.8384   25.4093 C   0  0  0  0  0  0  0  0  0  0  0  0
   20.6836  -10.7602   25.4693 H   0  0  0  0  0  0  0  0  0  0  0  0
   19.4380  -12.5073   25.2718 C   0  0  0  0  0  0  0  0  0  0  0  0
   18.5218  -11.9377   25.2220 H   0  0  0  0  0  0  0  0  0  0  0  0
   19.8256  -14.1958   21.4333 C   0  0  0  0  0  0  0  0  0  0  0  0
   19.6319  -15.1194   20.8657 H   0  0  0  0  0  0  0  0  0  0  0  0
   20.3660  -14.4584   22.3522 H   0  0  0  0  0  0  0  0  0  0  0  0
   18.5394  -13.5443   21.6907 N   0  0  0  0  0  0  0  0  0  0  0  0
   20.6002  -13.1784   20.6021 C   0  0  0  0  0  0  0  0  0  0  0  0
   21.3849  -13.6290   19.9808 H   0  0  0  0  0  0  0  0  0  0  0  0
   21.0906  -12.4471   21.2650 H   0  0  0  0  0  0  0  0  0  0  0  0
   19.4992  -12.4900   19.7861 C   0  0  0  0  0  0  0  0  0  0  0  0
   19.7827  -11.4818   19.4572 H   0  0  0  0  0  0  0  0  0  0  0  0
   19.3236  -13.0779   18.8691 H   0  0  0  0  0  0  0  0  0  0  0  0
   12.8588  -11.4767   20.4289 C   0  0  0  0  0  0  0  0  0  0  0  0
   13.0585  -10.4350   20.2349 H   0  0  0  0  0  0  0  0  0  0  0  0
   11.7754  -11.8939   21.2352 C   0  0  0  0  0  0  0  0  0  0  0  0
   10.8694  -10.9994   21.8468 O   0  0  0  0  0  0  0  0  0  0  0  0
   11.0542   -9.6060   21.6225 C   0  0  0  0  0  0  0  0  0  0  0  0
   10.2535   -9.0510   22.1571 H   0  0  0  0  0  0  0  0  0  0  0  0
   10.9802   -9.3673   20.5391 H   0  0  0  0  0  0  0  0  0  0  0  0
   12.0369   -9.2703   22.0196 H   0  0  0  0  0  0  0  0  0  0  0  0
   11.5791  -13.2653   21.4486 C   0  0  0  0  0  0  0  0  0  0  0  0
   10.7526  -13.5942   22.0621 H   0  0  0  0  0  0  0  0  0  0  0  0
   12.4371  -14.2132   20.8827 C   0  0  0  0  0  0  0  0  0  0  0  0
   12.2728  -15.2660   21.0606 H   0  0  0  0  0  0  0  0  0  0  0  0
   16.6821  -15.9982   23.4418 N   0  0  0  0  0  0  0  0  0  0  0  0
   15.8289  -15.4658   23.7095 H   0  0  0  0  0  0  0  0  0  0  0  0
   16.7952  -16.8178   24.0716 H   0  0  0  0  0  0  0  0  0  0  0  0
   16.5839  -16.3269   22.4595 H   0  0  0  0  0  0  0  0  0  0  0  0
   16.8374  -13.9403   19.5364 O   0  0  0  0  0  0  0  0  0  0  0  0
   16.5948  -13.2833   22.8334 O   0  0  0  0  0  0  0  0  0  0  0  0
  1  2  1  0
  1  3  2  0
  1 49  1  0
  3  4  1  0
  3 39  1  0
  4  5  1  0
  4  6  1  0
  4 17  1  0
  7  8  1  0
  7 17  1  0
  7 55  2  0
  8  9  1  1
  8 32  1  0
  8 36  1  0
 10 11  1  0
 10 32  1  0
 10 56  2  0
 11 12  1  6
 11 13  1  0
 11 51  1  0
 13 14  1  0
 13 15  1  0
 13 16  1  0
 16 19  2  0
 16 27  1  0
 17 18  1  0
 19 20  1  0
 19 21  1  0
 21 22  1  0
 21 23  2  0
 23 24  1  0
 23 25  1  0
 25 26  1  0
 25 27  2  0
 27 28  1  0
 29 30  1  0
 29 31  1  0
 29 32  1  0
 29 33  1  0
 33 34  1  0
 33 35  1  0
 33 36  1  0
 36 37  1  0
 36 38  1  0
 39 40  1  0
 39 41  2  0
 41 42  1  0
 41 47  1  0
 42 43  1  0
 43 44  1  0
 43 45  1  0
 43 46  1  0
 47 48  1  0
 47 49  2  0
 49 50  1  0
 51 52  1  0
 51 53  1  0
 51 54  1  0
M  CHG  1  51   1
M  END
> <intraLJ>
21.160    

> <intraEL>
4.153     

> <intraDihe>
15.672    

> <interLJ>
0.000     

> <interEJ>
0.000     

> <gridLJ>
-6.811    

> <gridEL>
0.000     

> <totalE>
34.174    

> <LGFE>
-6.811  

> <LE>
-0.243  

> <SMILES>
COc1cccc(CNC(=O)[C@@H]2CCCN2C(=O)[C@H]([NH3+])Cc2ccccc2)c1

> <atom.dprop.GFE>
-0.0559 0.0000 -0.1399 0.0529 0.0000 0.0000 0.0000 -0.4692 0.0000 0.0000 -0.3197 0.0000 -0.1339 0.0000 0.0000 -0.0676 -0.6140 0.0000 -0.2131 0.0000 -0.1905 0.0000 0.1147 0.0000 0.2415 0.0000 0.1097 0.0000 -0.5345 0.0000 0.0000 -0.1688 -0.4582 0.0000 0.0000 -0.6357 0.0000 0.0000 -0.2545 0.0000 -0.2320 -1.5210 -0.6913 0.0000 0.0000 0.0000 -0.2575 0.0000 -0.1201 0.0000 -0.8020 0.0000 0.0000 0.0000 0.0930 0.4570

> <atom.prop.CLASS>
BENC NCLA BENC PRPC NCLA NCLA NCLA PRPC NCLA NCLA PRPC NCLA PRPC NCLA NCLA BENC FORN NCLA BENC NCLA BENC NCLA BENC NCLA BENC NCLA BENC NCLA PRPC NCLA NCLA GEHC PRPC NCLA NCLA PRPC NCLA NCLA BENC NCLA BENC DMEO PRPC NCLA NCLA NCLA BENC NCLA BENC NCLA MAMN NCLA NCLA NCLA FORO FORO

> <cluster_id>
1

> <rmsd_to_cluster_rep>
0.00    

> <ligRMSD>
1.97    

> <ligCOMD>
0.92    

$$$$
thrombin_baum_07_2c.H_590
     RDKit          3D

 53 55  0  0  1  0  0  0  0  0999 V2000
   11.8448  -12.2881   21.3166 C   0  0  0  0  0  0  0  0  0  0  0  0
   11.9875  -13.2640   20.8765 H   0  0  0  0  0  0  0  0  0  0  0  0
   12.7008  -11.2290   20.9701 C   0  0  0  0  0  0  0  0  0  0  0  0
   13.8379  -11.4383   20.0158 C   0  0  0  0  0  0  0  0  0  0  0  0
   13.8556  -10.5628   19.3295 H   0  0  0  0  0  0  0  0  0  0  0  0
   13.6071  -12.3260   19.3814 H   0  0  0  0  0  0  0  0  0  0  0  0
   16.0369  -12.4693   20.2933 C   0  0  0  0  0  0  0  0  0  0  0  0
   17.3758  -12.4699   20.9907 C   0  0  1  0  0  0  0  0  0  0  0  0
   17.4026  -11.7088   21.7869 H   0  0  0  0  0  0  0  0  0  0  0  0
   16.8216  -14.4067   22.4487 C   0  0  0  0  0  0  0  0  0  0  0  0
   17.0967  -15.7973   22.9610 C   0  0  1  0  0  0  0  0  0  0  0  0
   17.7998  -16.3509   22.3104 H   0  0  0  0  0  0  0  0  0  0  0  0
   17.6473  -15.7261   24.4185 C   0  0  0  0  0  0  0  0  0  0  0  0
   17.6318  -16.7384   24.8770 H   0  0  0  0  0  0  0  0  0  0  0  0
   17.0207  -15.0568   25.0486 H   0  0  0  0  0  0  0  0  0  0  0  0
   19.0864  -15.2555   24.4541 C   0  0  0  0  0  0  0  0  0  0  0  0
   15.1268  -11.5419   20.6510 N   0  0  0  0  0  0  0  0  0  0  0  0
   15.3156  -10.8735   21.3654 H   0  0  0  0  0  0  0  0  0  0  0  0
   20.1303  -16.1640   24.2045 C   0  0  0  0  0  0  0  0  0  0  0  0
   19.9148  -17.2042   24.0108 H   0  0  0  0  0  0  0  0  0  0  0  0
   21.4614  -15.7314   24.1970 C   0  0  0  0  0  0  0  0  0  0  0  0
   22.2566  -16.4339   23.9947 H   0  0  0  0  0  0  0  0  0  0  0  0
   21.7629  -14.3907   24.4642 C   0  0  0  0  0  0  0  0  0  0  0  0
   22.7906  -14.0583   24.4665 H   0  0  0  0  0  0  0  0  0  0  0  0
   20.7316  -13.4816   24.7320 C   0  0  0  0  0  0  0  0  0  0  0  0
   20.9647  -12.4477   24.9402 H   0  0  0  0  0  0  0  0  0  0  0  0
   19.3978  -13.9107   24.7230 C   0  0  0  0  0  0  0  0  0  0  0  0
   18.6082  -13.2007   24.9205 H   0  0  0  0  0  0  0  0  0  0  0  0
   18.8739  -14.3640   20.9830 C   0  0  0  0  0  0  0  0  0  0  0  0
   18.5731  -15.0508   20.1764 H   0  0  0  0  0  0  0  0  0  0  0  0
   19.4707  -14.9248   21.7142 H   0  0  0  0  0  0  0  0  0  0  0  0
   17.6597  -13.7821   21.5589 N   0  0  0  0  0  0  0  0  0  0  0  0
   19.6407  -13.1629   20.4404 C   0  0  0  0  0  0  0  0  0  0  0  0
   20.3430  -13.4196   19.6369 H   0  0  0  0  0  0  0  0  0  0  0  0
   20.2274  -12.6956   21.2480 H   0  0  0  0  0  0  0  0  0  0  0  0
   18.5216  -12.2157   19.9903 C   0  0  0  0  0  0  0  0  0  0  0  0
   18.8400  -11.1655   19.9630 H   0  0  0  0  0  0  0  0  0  0  0  0
   18.2336  -12.4799   18.9584 H   0  0  0  0  0  0  0  0  0  0  0  0
   12.5185   -9.9676   21.5584 C   0  0  0  0  0  0  0  0  0  0  0  0
   13.1846   -9.1575   21.2996 H   0  0  0  0  0  0  0  0  0  0  0  0
   11.4827   -9.7639   22.4790 C   0  0  0  0  0  0  0  0  0  0  0  0
   11.3029   -8.4964   23.0722 O   0  0  0  0  0  0  0  0  0  0  0  0
   11.9757   -7.9080   22.7229 H   0  0  0  0  0  0  0  0  0  0  0  0
   10.6244  -10.8202   22.8132 C   0  0  0  0  0  0  0  0  0  0  0  0
    9.8231  -10.6665   23.5214 H   0  0  0  0  0  0  0  0  0  0  0  0
   10.8054  -12.0821   22.2322 C   0  0  0  0  0  0  0  0  0  0  0  0
   10.1460  -12.8966   22.4936 H   0  0  0  0  0  0  0  0  0  0  0  0
   15.8279  -16.5738   22.9084 N   0  0  0  0  0  0  0  0  0  0  0  0
   15.1021  -16.0830   23.4699 H   0  0  0  0  0  0  0  0  0  0  0  0
   15.9798  -17.5288   23.2906 H   0  0  0  0  0  0  0  0  0  0  0  0
   15.5057  -16.6427   21.9214 H   0  0  0  0  0  0  0  0  0  0  0  0
   15.8240  -13.3386   19.4508 O   0  0  0  0  0  0  0  0  0  0  0  0
   15.7905  -13.8626   22.8440 O   0  0  0  0  0  0  0  0  0  0  0  0
  1  2  1  0
  1  3  2  0
  1 46  1  0
  3  4  1  0
  3 39  1  0
  4  5  1  0
  4  6  1  0
  4 17  1  0
  7  8  1  0
  7 17  1  0
  7 52  2  0
  8  9  1  1
  8 32  1  0
  8 36  1  0
 10 11  1  0
 10 32  1  0
 10 53  2  0
 11 12  1  6
 11 13  1  0
 11 48  1  0
 13 14  1  0
 13 15  1  0
 13 16  1  0
 16 19  2  0
 16 27  1  0
 17 18  1  0
 19 20  1  0
 19 21  1  0
 21 22  1  0
 21 23  2  0
 23 24  1  0
 23 25  1  0
 25 26  1  0
 25 27  2  0
 27 28  1  0
 29 30  1  0
 29 31  1  0
 29 32  1  0
 29 33  1  0
 33 34  1  0
 33 35  1  0
 33 36  1  0
 36 37  1  0
 36 38  1  0
 39 40  1  0
 39 41  2  0
 41 42  1  0
 41 44  1  0
 42 43  1  0
 44 45  1  0
 44 46  2  0
 46 47  1  0
 48 49  1  0
 48 50  1  0
 48 51  1  0
M  CHG  1  48   1
M  END
> <intraLJ>
20.764    

> <intraEL>
2.989     

> <intraDihe>
14.921    

> <interLJ>
0.000     

> <interEJ>
0.000     

> <gridLJ>
-7.194    

> <gridEL>
0.000     

> <totalE>
31.480    

> <LGFE>
-7.194  

> <LE>
-0.266  

> <SMILES>
[NH3+][C@H](Cc1ccccc1)C(=O)N1CCC[C@H]1C(=O)NCc1cccc(O)c1

> <atom.dprop.GFE>
-0.2320 0.0000 -0.1668 -0.2348 0.0000 0.0000 0.0000 0.0103 0.0000 0.0000 -0.1339 0.0000 -0.1945 0.0000 0.0000 -0.1732 0.2190 0.0000 -0.1556 0.0000 -0.1944 0.0000 -0.1820 0.0000 -0.2276 0.0000 -0.1306 0.0000 -0.5345 0.0000 0.0000 -0.1159 -0.5435 0.0000 0.0000 -0.2751 0.0000 0.0000 -0.1364 0.0000 -0.1428 -1.0530 0.0000 -0.1824 0.0000 -0.2226 0.0000 -1.8750 0.0000 0.0000 0.0000 -0.2180 -0.0990

> <atom.prop.CLASS>
BENC NCLA BENC PRPC NCLA NCLA NCLA PRPC NCLA NCLA PRPC NCLA PRPC NCLA NCLA BENC FORN NCLA BENC NCLA BENC NCLA BENC NCLA BENC NCLA BENC NCLA PRPC NCLA NCLA GEHC PRPC NCLA NCLA PRPC NCLA NCLA BENC NCLA BENC MEOO NCLA BENC NCLA BENC NCLA MAMN NCLA NCLA NCLA FORO FORO

> <cluster_id>
1

> <rmsd_to_cluster_rep>
0.00    

> <ligRMSD>
1.11    

> <ligCOMD>
0.97    

$$$$
thrombin_baum_08_2d.H_1123
     RDKit          3D

 54 56  0  0  1  0  0  0  0  0999 V2000
   11.8618  -11.8998   21.5694 C   0  0  0  0  0  0  0  0  0  0  0  0
   11.9127  -12.8059   20.9837 H   0  0  0  0  0  0  0  0  0  0  0  0
   12.6939  -10.8128   21.2559 C   0  0  0  0  0  0  0  0  0  0  0  0
   13.6833  -10.9002   20.1328 C   0  0  0  0  0  0  0  0  0  0  0  0
   13.6246   -9.9433   19.5683 H   0  0  0  0  0  0  0  0  0  0  0  0
   13.3483  -11.6978   19.4289 H   0  0  0  0  0  0  0  0  0  0  0  0
   15.7024  -12.2540   20.3958 C   0  0  0  0  0  0  0  0  0  0  0  0
   17.1414  -12.3394   20.8448 C   0  0  1  0  0  0  0  0  0  0  0  0
   17.3302  -11.6529   21.6857 H   0  0  0  0  0  0  0  0  0  0  0  0
   16.7862  -14.3895   22.2067 C   0  0  0  0  0  0  0  0  0  0  0  0
   17.0960  -15.8271   22.5372 C   0  0  1  0  0  0  0  0  0  0  0  0
   17.6648  -16.3280   21.7312 H   0  0  0  0  0  0  0  0  0  0  0  0
   17.8798  -15.9046   23.8834 C   0  0  0  0  0  0  0  0  0  0  0  0
   18.0007  -16.9664   24.1884 H   0  0  0  0  0  0  0  0  0  0  0  0
   17.3308  -15.3771   24.6946 H   0  0  0  0  0  0  0  0  0  0  0  0
   19.2744  -15.3278   23.7565 C   0  0  0  0  0  0  0  0  0  0  0  0
   15.0451  -11.0893   20.5635 N   0  0  0  0  0  0  0  0  0  0  0  0
   15.4820  -10.2989   20.9844 H   0  0  0  0  0  0  0  0  0  0  0  0
   20.3130  -16.1088   23.2192 C   0  0  0  0  0  0  0  0  0  0  0  0
   20.1294  -17.1292   22.9175 H   0  0  0  0  0  0  0  0  0  0  0  0
   21.5963  -15.5725   23.0620 C   0  0  0  0  0  0  0  0  0  0  0  0
   22.3860  -16.1762   22.6394 H   0  0  0  0  0  0  0  0  0  0  0  0
   21.8592  -14.2577   23.4642 C   0  0  0  0  0  0  0  0  0  0  0  0
   22.8514  -13.8462   23.3505 H   0  0  0  0  0  0  0  0  0  0  0  0
   20.8360  -13.4773   24.0174 C   0  0  0  0  0  0  0  0  0  0  0  0
   21.0396  -12.4636   24.3294 H   0  0  0  0  0  0  0  0  0  0  0  0
   19.5471  -14.0082   24.1593 C   0  0  0  0  0  0  0  0  0  0  0  0
   18.7616  -13.3960   24.5774 H   0  0  0  0  0  0  0  0  0  0  0  0
   18.5539  -14.2501   20.4130 C   0  0  0  0  0  0  0  0  0  0  0  0
   18.0956  -14.8565   19.6161 H   0  0  0  0  0  0  0  0  0  0  0  0
   19.2500  -14.8844   20.9774 H   0  0  0  0  0  0  0  0  0  0  0  0
   17.4775  -13.7016   21.2407 N   0  0  0  0  0  0  0  0  0  0  0  0
   19.2533  -13.0182   19.8489 C   0  0  0  0  0  0  0  0  0  0  0  0
   19.7976  -13.2137   18.9160 H   0  0  0  0  0  0  0  0  0  0  0  0
   19.9856  -12.6349   20.5782 H   0  0  0  0  0  0  0  0  0  0  0  0
   18.1041  -12.0161   19.6840 C   0  0  0  0  0  0  0  0  0  0  0  0
   18.4463  -10.9732   19.6905 H   0  0  0  0  0  0  0  0  0  0  0  0
   17.6333  -12.1826   18.7001 H   0  0  0  0  0  0  0  0  0  0  0  0
   12.6316   -9.6443   22.0310 C   0  0  0  0  0  0  0  0  0  0  0  0
   13.2823   -8.8155   21.7909 H   0  0  0  0  0  0  0  0  0  0  0  0
   11.7386   -9.5541   23.1081 C   0  0  0  0  0  0  0  0  0  0  0  0
   11.6762   -8.3904   23.8686 N   0  0  0  0  0  0  0  0  0  0  0  0
   12.0424   -7.6020   23.3753 H   0  0  0  0  0  0  0  0  0  0  0  0
   10.8125   -8.3162   24.3663 H   0  0  0  0  0  0  0  0  0  0  0  0
   10.9059  -10.6428   23.4105 C   0  0  0  0  0  0  0  0  0  0  0  0
   10.2125  -10.5891   24.2376 H   0  0  0  0  0  0  0  0  0  0  0  0
   10.9671  -11.8130   22.6422 C   0  0  0  0  0  0  0  0  0  0  0  0
   10.3261  -12.6492   22.8802 H   0  0  0  0  0  0  0  0  0  0  0  0
   15.8111  -16.5733   22.6252 N   0  0  0  0  0  0  0  0  0  0  0  0
   15.2033  -16.1259   23.3417 H   0  0  0  0  0  0  0  0  0  0  0  0
   15.9922  -17.5629   22.8881 H   0  0  0  0  0  0  0  0  0  0  0  0
   15.3297  -16.5422   21.7032 H   0  0  0  0  0  0  0  0  0  0  0  0
   15.1830  -13.2643   19.9265 O   0  0  0  0  0  0  0  0  0  0  0  0
   15.8609  -13.8640   22.8254 O   0  0  0  0  0  0  0  0  0  0  0  0
  1  2  1  0
  1  3  2  0
  1 47  1  0
  3  4  1  0
  3 39  1  0
  4  5  1  0
  4  6  1  0
  4 17  1  0
  7  8  1  0
  7 17  1  0
  7 53  2  0
  8  9  1  1
  8 32  1  0
  8 36  1  0
 10 11  1  0
 10 32  1  0
 10 54  2  0
 11 12  1  6
 11 13  1  0
 11 49  1  0
 13 14  1  0
 13 15  1  0
 13 16  1  0
 16 19  2  0
 16 27  1  0
 17 18  1  0
 19 20  1  0
 19 21  1  0
 21 22  1  0
 21 23  2  0
 23 24  1  0
 23 25  1  0
 25 26  1  0
 25 27  2  0
 27 28  1  0
 29 30  1  0
 29 31  1  0
 29 32  1  0
 29 33  1  0
 33 34  1  0
 33 35  1  0
 33 36  1  0
 36 37  1  0
 36 38  1  0
 39 40  1  0
 39 41  2  0
 41 42  1  0
 41 45  1  0
 42 43  1  0
 42 44  1  0
 45 46  1  0
 45 47  2  0
 47 48  1  0
 49 50  1  0
 49 51  1  0
 49 52  1  0
M  CHG  1  49   1
M  END
> <intraLJ>
21.356    

> <intraEL>
2.329     

> <intraDihe>
15.730    

> <interLJ>
0.000     

> <interEJ>
0.000     

> <gridLJ>
-7.393    

> <gridEL>
0.000     

> <totalE>
32.021    

> <LGFE>
-7.393  

> <LE>
-0.274  

> <SMILES>
Nc1cccc(CNC(=O)[C@@H]2CCCN2C(=O)[C@H]([NH3+])Cc2ccccc2)c1

> <atom.dprop.GFE>
-0.2320 0.0000 -0.1668 -0.2348 0.0000 0.0000 0.0000 -0.0250 0.0000 0.0000 -0.0153 0.0000 -0.2907 0.0000 0.0000 -0.1829 0.2780 0.0000 -0.1914 0.0000 -0.2052 0.0000 -0.1433 0.0000 -0.2276 0.0000 -0.1306 0.0000 -0.4642 0.0000 0.0000 -0.1159 -0.6357 0.0000 0.0000 -0.2164 0.0000 0.0000 0.0195 0.0000 -0.0210 -1.7590 0.0000 0.0000 -0.0391 0.0000 -0.1759 0.0000 -1.6990 0.0000 0.0000 0.0000 -0.4200 -0.0990

> <atom.prop.CLASS>
BENC NCLA BENC PRPC NCLA NCLA NCLA PRPC NCLA NCLA PRPC NCLA PRPC NCLA NCLA BENC FORN NCLA BENC NCLA BENC NCLA BENC NCLA BENC NCLA BENC NCLA PRPC NCLA NCLA GEHC PRPC NCLA NCLA PRPC NCLA NCLA BENC NCLA BENC FORN NCLA NCLA BENC NCLA BENC NCLA MAMN NCLA NCLA NCLA FORO FORO

> <cluster_id>
1

> <rmsd_to_cluster_rep>
0.00    

> <ligRMSD>
1.16    

> <ligCOMD>
0.99    

$$$$
thrombin_baum_09_2e.H_818
     RDKit          3D

 54 56  0  0  1  0  0  0  0  0999 V2000
   12.1122  -12.5707   20.9143 C   0  0  0  0  0  0  0  0  0  0  0  0
   12.4424  -13.3340   20.2248 H   0  0  0  0  0  0  0  0  0  0  0  0
   12.7228  -11.3099   20.9098 C   0  0  0  0  0  0  0  0  0  0  0  0
   13.8622  -11.0091   19.9820 C   0  0  0  0  0  0  0  0  0  0  0  0
   13.7185   -9.9698   19.6120 H   0  0  0  0  0  0  0  0  0  0  0  0
   13.7744  -11.6716   19.0892 H   0  0  0  0  0  0  0  0  0  0  0  0
   15.9614  -12.1710   20.4562 C   0  0  0  0  0  0  0  0  0  0  0  0
   17.3232  -12.1482   21.1081 C   0  0  1  0  0  0  0  0  0  0  0  0
   17.3353  -11.4554   21.9648 H   0  0  0  0  0  0  0  0  0  0  0  0
   16.9358  -14.2298   22.4124 C   0  0  0  0  0  0  0  0  0  0  0  0
   17.3663  -15.5950   22.8847 C   0  0  1  0  0  0  0  0  0  0  0  0
   18.1025  -16.0602   22.2023 H   0  0  0  0  0  0  0  0  0  0  0  0
   17.9502  -15.4971   24.3276 C   0  0  0  0  0  0  0  0  0  0  0  0
   18.0811  -16.5163   24.7510 H   0  0  0  0  0  0  0  0  0  0  0  0
   17.2629  -14.9351   24.9980 H   0  0  0  0  0  0  0  0  0  0  0  0
   19.3164  -14.8437   24.3387 C   0  0  0  0  0  0  0  0  0  0  0  0
   15.1623  -11.0947   20.5982 N   0  0  0  0  0  0  0  0  0  0  0  0
   15.4471  -10.2995   21.1268 H   0  0  0  0  0  0  0  0  0  0  0  0
   20.4648  -15.6087   24.0684 C   0  0  0  0  0  0  0  0  0  0  0  0
   20.3829  -16.6682   23.8761 H   0  0  0  0  0  0  0  0  0  0  0  0
   21.7281  -15.0068   24.0382 C   0  0  0  0  0  0  0  0  0  0  0  0
   22.6041  -15.6000   23.8202 H   0  0  0  0  0  0  0  0  0  0  0  0
   21.8576  -13.6383   24.3032 C   0  0  0  0  0  0  0  0  0  0  0  0
   22.8332  -13.1751   24.2880 H   0  0  0  0  0  0  0  0  0  0  0  0
   20.7219  -12.8709   24.5914 C   0  0  0  0  0  0  0  0  0  0  0  0
   20.8223  -11.8155   24.7978 H   0  0  0  0  0  0  0  0  0  0  0  0
   19.4551  -13.4697   24.6051 C   0  0  0  0  0  0  0  0  0  0  0  0
   18.5837  -12.8684   24.8183 H   0  0  0  0  0  0  0  0  0  0  0  0
   18.9272  -13.9408   20.8919 C   0  0  0  0  0  0  0  0  0  0  0  0
   18.6371  -14.5750   20.0396 H   0  0  0  0  0  0  0  0  0  0  0  0
   19.5819  -14.5235   21.5533 H   0  0  0  0  0  0  0  0  0  0  0  0
   17.7035  -13.4833   21.5536 N   0  0  0  0  0  0  0  0  0  0  0  0
   19.6030  -12.6545   20.4299 C   0  0  0  0  0  0  0  0  0  0  0  0
   20.2895  -12.8004   19.5859 H   0  0  0  0  0  0  0  0  0  0  0  0
   20.1905  -12.2211   21.2556 H   0  0  0  0  0  0  0  0  0  0  0  0
   18.4153  -11.7430   20.0971 C   0  0  0  0  0  0  0  0  0  0  0  0
   18.6711  -10.6768   20.1488 H   0  0  0  0  0  0  0  0  0  0  0  0
   18.1054  -11.9382   19.0563 H   0  0  0  0  0  0  0  0  0  0  0  0
   12.2992  -10.3316   21.8177 C   0  0  0  0  0  0  0  0  0  0  0  0
   12.7945   -9.3712   21.8028 H   0  0  0  0  0  0  0  0  0  0  0  0
   11.2588  -10.5800   22.7462 C   0  0  0  0  0  0  0  0  0  0  0  0
   10.6559  -11.8629   22.7127 C   0  0  0  0  0  0  0  0  0  0  0  0
    9.8546  -12.1059   23.3960 H   0  0  0  0  0  0  0  0  0  0  0  0
   11.0764  -12.8440   21.8099 C   0  0  0  0  0  0  0  0  0  0  0  0
   10.6036  -13.8157   21.8084 H   0  0  0  0  0  0  0  0  0  0  0  0
   16.1825  -16.4965   22.8491 N   0  0  0  0  0  0  0  0  0  0  0  0
   15.4274  -16.0945   23.4417 H   0  0  0  0  0  0  0  0  0  0  0  0
   16.4425  -17.4384   23.2045 H   0  0  0  0  0  0  0  0  0  0  0  0
   15.8398  -16.5781   21.8700 H   0  0  0  0  0  0  0  0  0  0  0  0
   15.6279  -13.1877   19.8512 O   0  0  0  0  0  0  0  0  0  0  0  0
   15.8446  -13.8223   22.8109 O   0  0  0  0  0  0  0  0  0  0  0  0
   10.8343   -9.5628   23.7009 N   0  0  0  0  0  0  0  0  0  0  0  0
    9.9136   -9.8511   24.4618 O   0  0  0  0  0  0  0  0  0  0  0  0
   11.4270   -8.4863   23.6841 O   0  0  0  0  0  0  0  0  0  0  0  0
  1  2  1  0
  1  3  2  0
  1 44  1  0
  3  4  1  0
  3 39  1  0
  4  5  1  0
  4  6  1  0
  4 17  1  0
  7  8  1  0
  7 17  1  0
  7 50  2  0
  8  9  1  1
  8 32  1  0
  8 36  1  0
 10 11  1  0
 10 32  1  0
 10 51  2  0
 11 12  1  6
 11 13  1  0
 11 46  1  0
 13 14  1  0
 13 15  1  0
 13 16  1  0
 16 19  2  0
 16 27  1  0
 17 18  1  0
 19 20  1  0
 19 21  1  0
 21 22  1  0
 21 23  2  0
 23 24  1  0
 23 25  1  0
 25 26  1  0
 25 27  2  0
 27 28  1  0
 29 30  1  0
 29 31  1  0
 29 32  1  0
 29 33  1  0
 33 34  1  0
 33 35  1  0
 33 36  1  0
 36 37  1  0
 36 38  1  0
 39 40  1  0
 39 41  2  0
 41 42  1  0
 41 52  1  0
 42 43  1  0
 42 44  2  0
 44 45  1  0
 46 47  1  0
 46 48  1  0
 46 49  1  0
 52 53  1  0
 52 54  2  0
M  CHG  3  46   1  52   1  53  -1
M  END
> <intraLJ>
24.487    

> <intraEL>
6.092     

> <intraDihe>
14.856    

> <interLJ>
0.000     

> <interEJ>
0.000     

> <gridLJ>
-8.101    

> <gridEL>
0.000     

> <totalE>
37.334    

> <LGFE>
-8.101  

> <LE>
-0.279  

> <SMILES>
[NH3+][C@H](Cc1ccccc1)C(=O)N1CCC[C@H]1C(=O)NCc1cccc([N+](=O)[O-])c1

> <atom.dprop.GFE>
-0.1867 0.0000 -0.1668 -0.2348 0.0000 0.0000 0.0000 0.1682 0.0000 0.0000 -0.1339 0.0000 -0.2907 0.0000 0.0000 -0.1732 0.2780 0.0000 -0.1556 0.0000 -0.1944 0.0000 -0.1820 0.0000 0.0078 0.0000 -0.1306 0.0000 -0.5345 0.0000 0.0000 -0.1159 -0.5435 0.0000 0.0000 -0.2751 0.0000 0.0000 -0.1364 0.0000 -0.1600 -0.2226 0.0000 -0.2575 0.0000 -1.5070 0.0000 0.0000 0.0000 -0.4200 -0.0990 0.0000 -1.3310 -1.1040

> <atom.prop.CLASS>
BENC NCLA BENC PRPC NCLA NCLA NCLA PRPC NCLA NCLA PRPC NCLA PRPC NCLA NCLA BENC FORN NCLA BENC NCLA BENC NCLA BENC NCLA BENC NCLA BENC NCLA PRPC NCLA NCLA GEHC PRPC NCLA NCLA PRPC NCLA NCLA BENC NCLA BENC BENC NCLA BENC NCLA MAMN NCLA NCLA NCLA FORO FORO NCLA FORO FORO

> <cluster_id>
1

> <rmsd_to_cluster_rep>
0.00    

> <ligRMSD>
1.22    

> <ligCOMD>
0.86    

$$$$
thrombin_baum_10_3a_2zf0.H_354
     RDKit          3D

 55 57  0  0  1  0  0  0  0  0999 V2000
   17.3310  -15.4886   24.7299 C   0  0  0  0  0  0  0  0  0  0  0  0
   17.2726  -16.4566   25.2727 H   0  0  0  0  0  0  0  0  0  0  0  0
   16.5655  -14.8075   25.1628 H   0  0  0  0  0  0  0  0  0  0  0  0
   15.8219  -16.5011   22.9790 N   0  0  0  0  0  0  0  0  0  0  0  0
   15.8813  -17.4175   23.4669 H   0  0  0  0  0  0  0  0  0  0  0  0
   15.7002  -16.6606   21.9578 H   0  0  0  0  0  0  0  0  0  0  0  0
   15.0068  -15.9639   23.3391 H   0  0  0  0  0  0  0  0  0  0  0  0
   15.8596  -13.8183   22.5443 O   0  0  0  0  0  0  0  0  0  0  0  0
   17.0675  -15.7223   23.2100 C   0  0  1  0  0  0  0  0  0  0  0  0
   17.8657  -16.3618   22.7894 H   0  0  0  0  0  0  0  0  0  0  0  0
   18.0184  -13.8959   21.7991 N   0  0  0  0  0  0  0  0  0  0  0  0
   16.8459  -13.3983   19.1893 O   0  0  0  0  0  0  0  0  0  0  0  0
   16.9466  -14.3984   22.4961 C   0  0  0  0  0  0  0  0  0  0  0  0
   15.9014  -11.6479   20.2898 N   0  0  0  0  0  0  0  0  0  0  0  0
   15.9290  -11.0202   21.0631 H   0  0  0  0  0  0  0  0  0  0  0  0
   19.2653  -14.6203   21.5386 C   0  0  0  0  0  0  0  0  0  0  0  0
   19.0724  -15.3504   20.7370 H   0  0  0  0  0  0  0  0  0  0  0  0
   19.6458  -15.1619   22.4112 H   0  0  0  0  0  0  0  0  0  0  0  0
   20.2541  -13.5514   21.0945 C   0  0  0  0  0  0  0  0  0  0  0  0
   21.0595  -13.9426   20.4589 H   0  0  0  0  0  0  0  0  0  0  0  0
   20.7316  -13.0909   21.9749 H   0  0  0  0  0  0  0  0  0  0  0  0
   19.3641  -12.5261   20.3834 C   0  0  0  0  0  0  0  0  0  0  0  0
   19.2961  -12.8012   19.3174 H   0  0  0  0  0  0  0  0  0  0  0  0
   19.7861  -11.5129   20.4116 H   0  0  0  0  0  0  0  0  0  0  0  0
   17.9965  -12.6225   21.0954 C   0  0  1  0  0  0  0  0  0  0  0  0
   17.9080  -11.8009   21.8243 H   0  0  0  0  0  0  0  0  0  0  0  0
   16.8613  -12.5750   20.1028 C   0  0  0  0  0  0  0  0  0  0  0  0
   14.7950  -11.4790   19.3851 C   0  0  0  0  0  0  0  0  0  0  0  0
   14.7235  -12.3144   18.6501 H   0  0  0  0  0  0  0  0  0  0  0  0
   14.9726  -10.5567   18.7884 H   0  0  0  0  0  0  0  0  0  0  0  0
   13.4612  -11.3232   20.0547 C   0  0  0  0  0  0  0  0  0  0  0  0
   13.0158  -10.0414   20.4088 C   0  0  0  0  0  0  0  0  0  0  0  0
   13.6345   -9.1823   20.1952 H   0  0  0  0  0  0  0  0  0  0  0  0
   11.7730   -9.8672   21.0341 C   0  0  0  0  0  0  0  0  0  0  0  0
   11.2950   -8.4968   21.4109 C   0  0  0  0  0  0  0  0  0  0  0  0
   12.0534   -7.7337   21.1309 H   0  0  0  0  0  0  0  0  0  0  0  0
   11.1247   -8.4643   22.5083 H   0  0  0  0  0  0  0  0  0  0  0  0
   10.3441   -8.2880   20.8753 H   0  0  0  0  0  0  0  0  0  0  0  0
   10.9723  -10.9874   21.3065 C   0  0  0  0  0  0  0  0  0  0  0  0
   10.0128  -10.8590   21.7853 H   0  0  0  0  0  0  0  0  0  0  0  0
   11.4150  -12.2718   20.9637 C   0  0  0  0  0  0  0  0  0  0  0  0
   10.7972  -13.1313   21.1787 H   0  0  0  0  0  0  0  0  0  0  0  0
   12.6597  -12.4407   20.3441 C   0  0  0  0  0  0  0  0  0  0  0  0
   13.0005  -13.4316   20.0826 H   0  0  0  0  0  0  0  0  0  0  0  0
   18.7162  -14.9252   24.9918 C   0  0  0  0  0  0  0  0  0  0  0  0
   19.8184  -15.7898   25.1149 C   0  0  0  0  0  0  0  0  0  0  0  0
   19.6823  -16.8586   25.0406 H   0  0  0  0  0  0  0  0  0  0  0  0
   21.1069  -15.2785   25.3112 C   0  0  0  0  0  0  0  0  0  0  0  0
   21.9494  -15.9503   25.3854 H   0  0  0  0  0  0  0  0  0  0  0  0
   21.2997  -13.8975   25.4327 C   0  0  0  0  0  0  0  0  0  0  0  0
   22.2914  -13.5028   25.5988 H   0  0  0  0  0  0  0  0  0  0  0  0
   20.2049  -13.0284   25.3445 C   0  0  0  0  0  0  0  0  0  0  0  0
   20.3530  -11.9630   25.4427 H   0  0  0  0  0  0  0  0  0  0  0  0
   18.9196  -13.5387   25.1158 C   0  0  0  0  0  0  0  0  0  0  0  0
   18.0838  -12.8595   25.0345 H   0  0  0  0  0  0  0  0  0  0  0  0
  1  2  1  0
  1  3  1  0
  1  9  1  0
  1 45  1  0
  4  5  1  0
  4  6  1  0
  4  7  1  0
  4  9  1  0
  8 13  2  0
  9 10  1  6
  9 13  1  0
 11 13  1  0
 11 16  1  0
 11 25  1  0
 12 27  2  0
 14 15  1  0
 14 27  1  0
 14 28  1  0
 16 17  1  0
 16 18  1  0
 16 19  1  0
 19 20  1  0
 19 21  1  0
 19 22  1  0
 22 23  1  0
 22 24  1  0
 22 25  1  0
 25 26  1  1
 25 27  1  0
 28 29  1  0
 28 30  1  0
 28 31  1  0
 31 32  2  0
 31 43  1  0
 32 33  1  0
 32 34  1  0
 34 35  1  0
 34 39  2  0
 35 36  1  0
 35 37  1  0
 35 38  1  0
 39 40  1  0
 39 41  1  0
 41 42  1  0
 41 43  2  0
 43 44  1  0
 45 46  2  0
 45 54  1  0
 46 47  1  0
 46 48  1  0
 48 49  1  0
 48 50  2  0
 50 51  1  0
 50 52  1  0
 52 53  1  0
 52 54  2  0
 54 55  1  0
M  CHG  1   4   1
M  END
> <intraLJ>
21.650    

> <intraEL>
3.707     

> <intraDihe>
15.150    

> <interLJ>
0.000     

> <interEJ>
0.000     

> <gridLJ>
-6.322    

> <gridEL>
0.000     

> <totalE>
34.186    

> <LGFE>
-6.322  

> <LE>
-0.234  

> <SMILES>
Cc1cccc(CNC(=O)[C@@H]2CCCN2C(=O)[C@H]([NH3+])Cc2ccccc2)c1

> <atom.dprop.GFE>
-0.1945 0.0000 0.0000 -1.8750 0.0000 0.0000 0.0000 -0.0990 -0.1339 0.0000 -0.1688 -0.0110 0.0000 -0.2810 0.0000 -0.5062 0.0000 0.0000 -0.4832 0.0000 0.0000 -0.5435 0.0000 0.0000 -0.1945 0.0000 0.0000 0.1838 0.0000 0.0000 -0.0945 -0.0189 0.0000 -0.1889 -0.3686 0.0000 0.0000 0.0000 -0.2483 0.0000 -0.2320 0.0000 -0.2545 0.0000 -0.0543 -0.1288 0.0000 -0.2231 0.0000 -0.1905 0.0000 0.0551 0.0000 -0.0676 0.0000

> <atom.prop.CLASS>
PRPC NCLA NCLA MAMN NCLA NCLA NCLA FORO PRPC NCLA GEHC FORO NCLA FORN NCLA PRPC NCLA NCLA PRPC NCLA NCLA PRPC NCLA NCLA PRPC NCLA NCLA PRPC NCLA NCLA BENC BENC NCLA BENC PRPC NCLA NCLA NCLA BENC NCLA BENC NCLA BENC NCLA BENC BENC NCLA BENC NCLA BENC NCLA BENC NCLA BENC NCLA

> <cluster_id>
1

> <rmsd_to_cluster_rep>
0.00    

> <ligRMSD>
1.48    

> <ligCOMD>
0.97    

$$$$
thrombin_baum_11_3b.H_159
     RDKit          3D

 58 60  0  0  1  0  0  0  0  0999 V2000
   12.8610  -12.7815   19.9851 C   0  0  0  0  0  0  0  0  0  0  0  0
   13.1210  -13.6128   19.3465 H   0  0  0  0  0  0  0  0  0  0  0  0
   13.6442  -11.6155   19.9746 C   0  0  0  0  0  0  0  0  0  0  0  0
   14.8648  -11.5131   19.1118 C   0  0  0  0  0  0  0  0  0  0  0  0
   14.8126  -10.5356   18.5831 H   0  0  0  0  0  0  0  0  0  0  0  0
   14.8053  -12.2982   18.3220 H   0  0  0  0  0  0  0  0  0  0  0  0
   16.7669  -12.7200   20.0599 C   0  0  0  0  0  0  0  0  0  0  0  0
   18.0796  -12.6669   20.8029 C   0  0  1  0  0  0  0  0  0  0  0  0
   18.1049  -11.8074   21.4919 H   0  0  0  0  0  0  0  0  0  0  0  0
   17.4092  -14.3739   22.4824 C   0  0  0  0  0  0  0  0  0  0  0  0
   17.6158  -15.6936   23.1806 C   0  0  1  0  0  0  0  0  0  0  0  0
   18.4320  -16.2848   22.7241 H   0  0  0  0  0  0  0  0  0  0  0  0
   17.9011  -15.4534   24.6950 C   0  0  0  0  0  0  0  0  0  0  0  0
   17.9030  -16.4238   25.2366 H   0  0  0  0  0  0  0  0  0  0  0  0
   17.1163  -14.8100   25.1509 H   0  0  0  0  0  0  0  0  0  0  0  0
   19.2623  -14.8285   24.9193 C   0  0  0  0  0  0  0  0  0  0  0  0
   16.1039  -11.5668   19.8443 N   0  0  0  0  0  0  0  0  0  0  0  0
   16.4534  -10.6937   20.1734 H   0  0  0  0  0  0  0  0  0  0  0  0
   20.4258  -15.6035   24.7681 C   0  0  0  0  0  0  0  0  0  0  0  0
   20.3556  -16.6512   24.5161 H   0  0  0  0  0  0  0  0  0  0  0  0
   21.6900  -15.0265   24.9352 C   0  0  0  0  0  0  0  0  0  0  0  0
   22.5789  -15.6267   24.8076 H   0  0  0  0  0  0  0  0  0  0  0  0
   21.8019  -13.6744   25.2801 C   0  0  0  0  0  0  0  0  0  0  0  0
   22.7771  -13.2308   25.4170 H   0  0  0  0  0  0  0  0  0  0  0  0
   20.6486  -12.8981   25.4510 C   0  0  0  0  0  0  0  0  0  0  0  0
   20.7352  -11.8555   25.7192 H   0  0  0  0  0  0  0  0  0  0  0  0
   19.3832  -13.4712   25.2672 C   0  0  0  0  0  0  0  0  0  0  0  0
   18.4995  -12.8627   25.3910 H   0  0  0  0  0  0  0  0  0  0  0  0
   19.5110  -14.5882   21.1042 C   0  0  0  0  0  0  0  0  0  0  0  0
   19.2150  -15.3679   20.3850 H   0  0  0  0  0  0  0  0  0  0  0  0
   20.0627  -15.0633   21.9261 H   0  0  0  0  0  0  0  0  0  0  0  0
   18.2982  -13.8992   21.5502 N   0  0  0  0  0  0  0  0  0  0  0  0
   20.3369  -13.4937   20.4371 C   0  0  0  0  0  0  0  0  0  0  0  0
   21.0569  -13.8762   19.7023 H   0  0  0  0  0  0  0  0  0  0  0  0
   20.9117  -12.9403   21.1976 H   0  0  0  0  0  0  0  0  0  0  0  0
   19.2674  -12.5822   19.8228 C   0  0  0  0  0  0  0  0  0  0  0  0
   19.6225  -11.5549   19.6695 H   0  0  0  0  0  0  0  0  0  0  0  0
   19.0063  -12.9729   18.8245 H   0  0  0  0  0  0  0  0  0  0  0  0
   13.3090  -10.5469   20.8180 C   0  0  0  0  0  0  0  0  0  0  0  0
   13.9130   -9.6516   20.8163 H   0  0  0  0  0  0  0  0  0  0  0  0
   12.1964  -10.6341   21.6671 C   0  0  0  0  0  0  0  0  0  0  0  0
   11.8238   -9.4696   22.5407 C   0  0  0  0  0  0  0  0  0  0  0  0
   12.7491   -8.9370   22.8519 H   0  0  0  0  0  0  0  0  0  0  0  0
   11.3077   -9.8465   23.4507 H   0  0  0  0  0  0  0  0  0  0  0  0
   10.9047   -8.5359   21.7480 C   0  0  0  0  0  0  0  0  0  0  0  0
   10.6096   -7.6678   22.3755 H   0  0  0  0  0  0  0  0  0  0  0  0
    9.9798   -9.0651   21.4320 H   0  0  0  0  0  0  0  0  0  0  0  0
   11.4187   -8.1491   20.8415 H   0  0  0  0  0  0  0  0  0  0  0  0
   11.4080  -11.7961   21.6574 C   0  0  0  0  0  0  0  0  0  0  0  0
   10.5416  -11.8643   22.2985 H   0  0  0  0  0  0  0  0  0  0  0  0
   11.7405  -12.8680   20.8201 C   0  0  0  0  0  0  0  0  0  0  0  0
   11.1344  -13.7619   20.8206 H   0  0  0  0  0  0  0  0  0  0  0  0
   16.3902  -16.5173   22.9940 N   0  0  0  0  0  0  0  0  0  0  0  0
   15.5684  -15.9983   23.3660 H   0  0  0  0  0  0  0  0  0  0  0  0
   16.4900  -17.4219   23.4970 H   0  0  0  0  0  0  0  0  0  0  0  0
   16.2471  -16.6988   21.9794 H   0  0  0  0  0  0  0  0  0  0  0  0
   16.3438  -13.8205   19.7122 O   0  0  0  0  0  0  0  0  0  0  0  0
   16.3871  -13.7492   22.7658 O   0  0  0  0  0  0  0  0  0  0  0  0
  1  2  1  0
  1  3  2  0
  1 51  1  0
  3  4  1  0
  3 39  1  0
  4  5  1  0
  4  6  1  0
  4 17  1  0
  7  8  1  0
  7 17  1  0
  7 57  2  0
  8  9  1  1
  8 32  1  0
  8 36  1  0
 10 11  1  0
 10 32  1  0
 10 58  2  0
 11 12  1  6
 11 13  1  0
 11 53  1  0
 13 14  1  0
 13 15  1  0
 13 16  1  0
 16 19  2  0
 16 27  1  0
 17 18  1  0
 19 20  1  0
 19 21  1  0
 21 22  1  0
 21 23  2  0
 23 24  1  0
 23 25  1  0
 25 26  1  0
 25 27  2  0
 27 28  1  0
 29 30  1  0
 29 31  1  0
 29 32  1  0
 29 33  1  0
 33 34  1  0
 33 35  1  0
 33 36  1  0
 36 37  1  0
 36 38  1  0
 39 40  1  0
 39 41  2  0
 41 42  1  0
 41 49  1  0
 42 43  1  0
 42 44  1  0
 42 45  1  0
 45 46  1  0
 45 47  1  0
 45 48  1  0
 49 50  1  0
 49 51  2  0
 51 52  1  0
 53 54  1  0
 53 55  1  0
 53 56  1  0
M  CHG  1  53   1
M  END
> <intraLJ>
21.046    

> <intraEL>
4.576     

> <intraDihe>
15.923    

> <interLJ>
0.000     

> <interEJ>
0.000     

> <gridLJ>
-6.902    

> <gridEL>
0.000     

> <totalE>
34.642    

> <LGFE>
-6.902  

> <LE>
-0.247  

> <SMILES>
CCc1cccc(CNC(=O)[C@@H]2CCCN2C(=O)[C@H]([NH3+])Cc2ccccc2)c1

> <atom.dprop.GFE>
-0.2401 0.0000 -0.1399 0.0529 0.0000 0.0000 0.0000 -0.4692 0.0000 0.0000 -0.1339 0.0000 -0.2394 0.0000 0.0000 -0.1468 -0.6140 0.0000 -0.1556 0.0000 -0.2231 0.0000 -0.1905 0.0000 0.0551 0.0000 -0.0676 0.0000 -0.5062 0.0000 0.0000 -0.1688 -0.5788 0.0000 0.0000 -0.6357 0.0000 0.0000 -0.0945 0.0000 -0.1668 -0.6387 0.0000 0.0000 -0.3686 0.0000 0.0000 0.0000 -0.2320 0.0000 -0.1850 0.0000 -1.5070 0.0000 0.0000 0.0000 0.0930 0.5990

> <atom.prop.CLASS>
BENC NCLA BENC PRPC NCLA NCLA NCLA PRPC NCLA NCLA PRPC NCLA PRPC NCLA NCLA BENC FORN NCLA BENC NCLA BENC NCLA BENC NCLA BENC NCLA BENC NCLA PRPC NCLA NCLA GEHC PRPC NCLA NCLA PRPC NCLA NCLA BENC NCLA BENC PRPC NCLA NCLA PRPC NCLA NCLA NCLA BENC NCLA BENC NCLA MAMN NCLA NCLA NCLA FORO FORO

> <cluster_id>
1

> <rmsd_to_cluster_rep>
0.00    

> <ligRMSD>
1.35    

> <ligCOMD>
1.01    

$$$$
thrombin_baum_12_3c.H_1019
     RDKit          3D

 61 63  0  0  1  0  0  0  0  0999 V2000
   13.3615  -13.0008   20.3227 C   0  0  0  0  0  0  0  0  0  0  0  0
   13.8406  -13.8840   19.9265 H   0  0  0  0  0  0  0  0  0  0  0  0
   13.8470  -11.7273   19.9862 C   0  0  0  0  0  0  0  0  0  0  0  0
   15.0484  -11.5707   19.1038 C   0  0  0  0  0  0  0  0  0  0  0  0
   14.9542  -10.5871   18.5925 H   0  0  0  0  0  0  0  0  0  0  0  0
   15.0002  -12.3441   18.3019 H   0  0  0  0  0  0  0  0  0  0  0  0
   17.0171  -12.7253   19.9795 C   0  0  0  0  0  0  0  0  0  0  0  0
   18.3414  -12.6393   20.6989 C   0  0  1  0  0  0  0  0  0  0  0  0
   18.3743  -11.7537   21.3536 H   0  0  0  0  0  0  0  0  0  0  0  0
   17.7036  -14.2827   22.4529 C   0  0  0  0  0  0  0  0  0  0  0  0
   17.9000  -15.5971   23.1640 C   0  0  1  0  0  0  0  0  0  0  0  0
   18.7815  -16.1489   22.7864 H   0  0  0  0  0  0  0  0  0  0  0  0
   18.0277  -15.3553   24.6994 C   0  0  0  0  0  0  0  0  0  0  0  0
   18.1091  -16.3291   25.2287 H   0  0  0  0  0  0  0  0  0  0  0  0
   17.1327  -14.8260   25.0950 H   0  0  0  0  0  0  0  0  0  0  0  0
   19.2753  -14.5686   25.0435 C   0  0  0  0  0  0  0  0  0  0  0  0
   16.3028  -11.5948   19.8117 N   0  0  0  0  0  0  0  0  0  0  0  0
   16.6228  -10.7180   20.1604 H   0  0  0  0  0  0  0  0  0  0  0  0
   20.5329  -15.1973   25.0188 C   0  0  0  0  0  0  0  0  0  0  0  0
   20.6143  -16.2471   24.7792 H   0  0  0  0  0  0  0  0  0  0  0  0
   21.6959  -14.4701   25.2974 C   0  0  0  0  0  0  0  0  0  0  0  0
   22.6588  -14.9585   25.2667 H   0  0  0  0  0  0  0  0  0  0  0  0
   21.6098  -13.1126   25.6283 C   0  0  0  0  0  0  0  0  0  0  0  0
   22.5063  -12.5531   25.8513 H   0  0  0  0  0  0  0  0  0  0  0  0
   20.3603  -12.4813   25.6735 C   0  0  0  0  0  0  0  0  0  0  0  0
   20.2940  -11.4345   25.9308 H   0  0  0  0  0  0  0  0  0  0  0  0
   19.1973  -13.2049   25.3781 C   0  0  0  0  0  0  0  0  0  0  0  0
   18.2389  -12.7076   25.4054 H   0  0  0  0  0  0  0  0  0  0  0  0
   19.7845  -14.5432   21.0514 C   0  0  0  0  0  0  0  0  0  0  0  0
   19.4799  -15.3506   20.3672 H   0  0  0  0  0  0  0  0  0  0  0  0
   20.3507  -14.9849   21.8820 H   0  0  0  0  0  0  0  0  0  0  0  0
   18.5765  -13.8411   21.4899 N   0  0  0  0  0  0  0  0  0  0  0  0
   20.5958  -13.4725   20.3300 C   0  0  0  0  0  0  0  0  0  0  0  0
   21.3060  -13.8807   19.5995 H   0  0  0  0  0  0  0  0  0  0  0  0
   21.1798  -12.8883   21.0597 H   0  0  0  0  0  0  0  0  0  0  0  0
   19.5134  -12.5891   19.6977 C   0  0  0  0  0  0  0  0  0  0  0  0
   19.8621  -11.5674   19.4989 H   0  0  0  0  0  0  0  0  0  0  0  0
   19.2381  -13.0193   18.7196 H   0  0  0  0  0  0  0  0  0  0  0  0
   13.2292  -10.5854   20.5174 C   0  0  0  0  0  0  0  0  0  0  0  0
   13.6157   -9.6100   20.2622 H   0  0  0  0  0  0  0  0  0  0  0  0
   12.1229  -10.7043   21.3762 C   0  0  0  0  0  0  0  0  0  0  0  0
   11.4486   -9.4777   21.9557 C   0  0  0  0  0  0  0  0  0  0  0  0
   12.4568   -8.7109   22.8387 C   0  0  0  0  0  0  0  0  0  0  0  0
   11.9534   -7.8451   23.3193 H   0  0  0  0  0  0  0  0  0  0  0  0
   13.3044   -8.3243   22.2350 H   0  0  0  0  0  0  0  0  0  0  0  0
   12.8581   -9.3679   23.6395 H   0  0  0  0  0  0  0  0  0  0  0  0
   10.5888   -9.7688   22.6034 H   0  0  0  0  0  0  0  0  0  0  0  0
   10.8910   -8.6167   20.8021 C   0  0  0  0  0  0  0  0  0  0  0  0
   10.3397   -7.7453   21.2153 H   0  0  0  0  0  0  0  0  0  0  0  0
   10.1889   -9.2061   20.1748 H   0  0  0  0  0  0  0  0  0  0  0  0
   11.7092   -8.2320   20.1579 H   0  0  0  0  0  0  0  0  0  0  0  0
   11.6406  -11.9859   21.6948 C   0  0  0  0  0  0  0  0  0  0  0  0
   10.7897  -12.0928   22.3511 H   0  0  0  0  0  0  0  0  0  0  0  0
   12.2564  -13.1288   21.1711 C   0  0  0  0  0  0  0  0  0  0  0  0
   11.8809  -14.1092   21.4254 H   0  0  0  0  0  0  0  0  0  0  0  0
   16.7355  -16.4722   22.8578 N   0  0  0  0  0  0  0  0  0  0  0  0
   15.8597  -15.9922   23.1504 H   0  0  0  0  0  0  0  0  0  0  0  0
   16.8264  -17.3751   23.3654 H   0  0  0  0  0  0  0  0  0  0  0  0
   16.6988  -16.6525   21.8336 H   0  0  0  0  0  0  0  0  0  0  0  0
   16.6329  -13.8318   19.6069 O   0  0  0  0  0  0  0  0  0  0  0  0
   16.7040  -13.6310   22.7554 O   0  0  0  0  0  0  0  0  0  0  0  0
  1  2  1  0
  1  3  2  0
  1 54  1  0
  3  4  1  0
  3 39  1  0
  4  5  1  0
  4  6  1  0
  4 17  1  0
  7  8  1  0
  7 17  1  0
  7 60  2  0
  8  9  1  1
  8 32  1  0
  8 36  1  0
 10 11  1  0
 10 32  1  0
 10 61  2  0
 11 12  1  6
 11 13  1  0
 11 56  1  0
 13 14  1  0
 13 15  1  0
 13 16  1  0
 16 19  2  0
 16 27  1  0
 17 18  1  0
 19 20  1  0
 19 21  1  0
 21 22  1  0
 21 23  2  0
 23 24  1  0
 23 25  1  0
 25 26  1  0
 25 27  2  0
 27 28  1  0
 29 30  1  0
 29 31  1  0
 29 32  1  0
 29 33  1  0
 33 34  1  0
 33 35  1  0
 33 36  1  0
 36 37  1  0
 36 38  1  0
 39 40  1  0
 39 41  2  0
 41 42  1  0
 41 52  1  0
 42 43  1  0
 42 47  1  0
 42 48  1  0
 43 44  1  0
 43 45  1  0
 43 46  1  0
 48 49  1  0
 48 50  1  0
 48 51  1  0
 52 53  1  0
 52 54  2  0
 54 55  1  0
 56 57  1  0
 56 58  1  0
 56 59  1  0
M  CHG  1  56   1
M  END
> <intraLJ>
21.126    

> <intraEL>
4.071     

> <intraDihe>
16.661    

> <interLJ>
0.000     

> <interEJ>
0.000     

> <gridLJ>
-6.782    

> <gridEL>
0.000     

> <totalE>
35.076    

> <LGFE>
-6.782  

> <LE>
-0.234  

> <SMILES>
CC(C)c1cccc(CNC(=O)[C@@H]2CCCN2C(=O)[C@H]([NH3+])Cc2ccccc2)c1

> <atom.dprop.GFE>
-0.1288 0.0000 -0.1399 0.0529 0.0000 0.0000 0.0000 -0.4692 0.0000 0.0000 -0.2661 0.0000 -0.2394 0.0000 0.0000 -0.1468 -0.6140 0.0000 -0.2131 0.0000 -0.2231 0.0000 0.1147 0.0000 0.0551 0.0000 0.1097 0.0000 -0.5062 0.0000 0.0000 -0.1688 -0.5788 0.0000 0.0000 -0.6357 0.0000 0.0000 -0.0945 0.0000 -0.1668 -0.6387 -0.0982 0.0000 0.0000 0.0000 0.0000 -0.5528 0.0000 0.0000 0.0000 -0.2320 0.0000 -0.1867 0.0000 -1.5070 0.0000 0.0000 0.0000 0.0930 0.5990

> <atom.prop.CLASS>
BENC NCLA BENC PRPC NCLA NCLA NCLA PRPC NCLA NCLA PRPC NCLA PRPC NCLA NCLA BENC FORN NCLA BENC NCLA BENC NCLA BENC NCLA BENC NCLA BENC NCLA PRPC NCLA NCLA GEHC PRPC NCLA NCLA PRPC NCLA NCLA BENC NCLA BENC PRPC PRPC NCLA NCLA NCLA NCLA PRPC NCLA NCLA NCLA BENC NCLA BENC NCLA MAMN NCLA NCLA NCLA FORO FORO

> <cluster_id>
1

> <rmsd_to_cluster_rep>
0.00    

> <ligRMSD>
1.58    

> <ligCOMD>
1.05    

$$$$
thrombin_baum_13_3d.H_398
     RDKit          3D

 64 66  0  0  1  0  0  0  0  0999 V2000
   13.3490  -13.0898   20.5046 C   0  0  0  0  0  0  0  0  0  0  0  0
   13.8426  -13.9739   20.1283 H   0  0  0  0  0  0  0  0  0  0  0  0
   13.7813  -11.8188   20.1034 C   0  0  0  0  0  0  0  0  0  0  0  0
   14.9512  -11.6645   19.1779 C   0  0  0  0  0  0  0  0  0  0  0  0
   14.8105  -10.7076   18.6280 H   0  0  0  0  0  0  0  0  0  0  0  0
   14.9048  -12.4735   18.4116 H   0  0  0  0  0  0  0  0  0  0  0  0
   17.0172  -12.7035   19.9746 C   0  0  0  0  0  0  0  0  0  0  0  0
   18.3538  -12.5416   20.6573 C   0  0  1  0  0  0  0  0  0  0  0  0
   18.4158  -11.5685   21.1704 H   0  0  0  0  0  0  0  0  0  0  0  0
   17.7077  -13.8851   22.6478 C   0  0  0  0  0  0  0  0  0  0  0  0
   17.9018  -15.0661   23.5641 C   0  0  1  0  0  0  0  0  0  0  0  0
   18.5639  -15.8341   23.1214 H   0  0  0  0  0  0  0  0  0  0  0  0
   18.4686  -14.5859   24.9354 C   0  0  0  0  0  0  0  0  0  0  0  0
   18.4073  -15.4107   25.6779 H   0  0  0  0  0  0  0  0  0  0  0  0
   17.8815  -13.7274   25.3303 H   0  0  0  0  0  0  0  0  0  0  0  0
   19.9293  -14.1986   24.8366 C   0  0  0  0  0  0  0  0  0  0  0  0
   16.2265  -11.6193   19.8467 N   0  0  0  0  0  0  0  0  0  0  0  0
   16.5006  -10.7291   20.2003 H   0  0  0  0  0  0  0  0  0  0  0  0
   20.9255  -15.1889   24.8994 C   0  0  0  0  0  0  0  0  0  0  0  0
   20.6576  -16.2252   25.0425 H   0  0  0  0  0  0  0  0  0  0  0  0
   22.2764  -14.8463   24.7704 C   0  0  0  0  0  0  0  0  0  0  0  0
   23.0347  -15.6145   24.8100 H   0  0  0  0  0  0  0  0  0  0  0  0
   22.6455  -13.5063   24.6028 C   0  0  0  0  0  0  0  0  0  0  0  0
   23.6884  -13.2407   24.5113 H   0  0  0  0  0  0  0  0  0  0  0  0
   21.6620  -12.5101   24.5574 C   0  0  0  0  0  0  0  0  0  0  0  0
   21.9471  -11.4762   24.4302 H   0  0  0  0  0  0  0  0  0  0  0  0
   20.3084  -12.8545   24.6695 C   0  0  0  0  0  0  0  0  0  0  0  0
   19.5560  -12.0810   24.6231 H   0  0  0  0  0  0  0  0  0  0  0  0
   19.7611  -14.4036   21.2774 C   0  0  0  0  0  0  0  0  0  0  0  0
   19.4296  -15.2983   20.7275 H   0  0  0  0  0  0  0  0  0  0  0  0
   20.3302  -14.7270   22.1589 H   0  0  0  0  0  0  0  0  0  0  0  0
   18.5745  -13.6157   21.6179 N   0  0  0  0  0  0  0  0  0  0  0  0
   20.5841  -13.4738   20.3922 C   0  0  0  0  0  0  0  0  0  0  0  0
   21.2737  -14.0046   19.7233 H   0  0  0  0  0  0  0  0  0  0  0  0
   21.1922  -12.8002   21.0178 H   0  0  0  0  0  0  0  0  0  0  0  0
   19.5116  -12.6702   19.6466 C   0  0  0  0  0  0  0  0  0  0  0  0
   19.8793  -11.6986   19.2922 H   0  0  0  0  0  0  0  0  0  0  0  0
   19.2125  -13.2359   18.7477 H   0  0  0  0  0  0  0  0  0  0  0  0
   13.1439  -10.6767   20.6098 C   0  0  0  0  0  0  0  0  0  0  0  0
   13.5001   -9.7075   20.2948 H   0  0  0  0  0  0  0  0  0  0  0  0
   12.0665  -10.7771   21.5149 C   0  0  0  0  0  0  0  0  0  0  0  0
   11.4091   -9.4868   22.0424 C   0  0  0  0  0  0  0  0  0  0  0  0
   12.4798   -8.6742   22.8081 C   0  0  0  0  0  0  0  0  0  0  0  0
   12.0184   -7.7596   23.2378 H   0  0  0  0  0  0  0  0  0  0  0  0
   13.3057   -8.3553   22.1398 H   0  0  0  0  0  0  0  0  0  0  0  0
   12.9038   -9.2720   23.6426 H   0  0  0  0  0  0  0  0  0  0  0  0
   10.2303   -9.7890   22.9982 C   0  0  0  0  0  0  0  0  0  0  0  0
    9.7869   -8.8371   23.3601 H   0  0  0  0  0  0  0  0  0  0  0  0
   10.5750  -10.3645   23.8829 H   0  0  0  0  0  0  0  0  0  0  0  0
    9.4339  -10.3608   22.4770 H   0  0  0  0  0  0  0  0  0  0  0  0
   10.8824   -8.6879   20.8277 C   0  0  0  0  0  0  0  0  0  0  0  0
   10.3650   -7.7699   21.1793 H   0  0  0  0  0  0  0  0  0  0  0  0
   10.1553   -9.2928   20.2454 H   0  0  0  0  0  0  0  0  0  0  0  0
   11.7084   -8.3762   20.1558 H   0  0  0  0  0  0  0  0  0  0  0  0
   11.6415  -12.0722   21.8928 C   0  0  0  0  0  0  0  0  0  0  0  0
   10.8225  -12.2292   22.5761 H   0  0  0  0  0  0  0  0  0  0  0  0
   12.2779  -13.2146   21.3916 C   0  0  0  0  0  0  0  0  0  0  0  0
   11.9419  -14.1953   21.6961 H   0  0  0  0  0  0  0  0  0  0  0  0
   16.5873  -15.7422   23.7388 N   0  0  0  0  0  0  0  0  0  0  0  0
   15.8981  -15.0594   24.1155 H   0  0  0  0  0  0  0  0  0  0  0  0
   16.6837  -16.5415   24.3967 H   0  0  0  0  0  0  0  0  0  0  0  0
   16.2526  -16.0903   22.8171 H   0  0  0  0  0  0  0  0  0  0  0  0
   16.6950  -13.8271   19.5945 O   0  0  0  0  0  0  0  0  0  0  0  0
   16.7157  -13.1840   22.8473 O   0  0  0  0  0  0  0  0  0  0  0  0
  1  2  1  0
  1  3  2  0
  1 57  1  0
  3  4  1  0
  3 39  1  0
  4  5  1  0
  4  6  1  0
  4 17  1  0
  7  8  1  0
  7 17  1  0
  7 63  2  0
  8  9  1  1
  8 32  1  0
  8 36  1  0
 10 11  1  0
 10 32  1  0
 10 64  2  0
 11 12  1  6
 11 13  1  0
 11 59  1  0
 13 14  1  0
 13 15  1  0
 13 16  1  0
 16 19  2  0
 16 27  1  0
 17 18  1  0
 19 20  1  0
 19 21  1  0
 21 22  1  0
 21 23  2  0
 23 24  1  0
 23 25  1  0
 25 26  1  0
 25 27  2  0
 27 28  1  0
 29 30  1  0
 29 31  1  0
 29 32  1  0
 29 33  1  0
 33 34  1  0
 33 35  1  0
 33 36  1  0
 36 37  1  0
 36 38  1  0
 39 40  1  0
 39 41  2  0
 41 42  1  0
 41 55  1  0
 42 43  1  0
 42 47  1  0
 42 51  1  0
 43 44  1  0
 43 45  1  0
 43 46  1  0
 47 48  1  0
 47 49  1  0
 47 50  1  0
 51 52  1  0
 51 53  1  0
 51 54  1  0
 55 56  1  0
 55 57  2  0
 57 58  1  0
 59 60  1  0
 59 61  1  0
 59 62  1  0
M  CHG  1  59   1
M  END
> <intraLJ>
21.963    

> <intraEL>
2.341     

> <intraDihe>
16.841    

> <interLJ>
0.000     

> <interEJ>
0.000     

> <gridLJ>
-6.579    

> <gridEL>
0.000     

> <totalE>
34.566    

> <LGFE>
-6.579  

> <LE>
-0.219  

> <SMILES>
CC(C)(C)c1cccc(CNC(=O)[C@@H]2CCCN2C(=O)[C@H]([NH3+])Cc2ccccc2)c1

> <atom.dprop.GFE>
-0.1288 0.0000 -0.1399 0.0529 0.0000 0.0000 0.0000 -0.4692 0.0000 0.0000 -0.3197 0.0000 -0.1339 0.0000 0.0000 -0.2276 -0.6140 0.0000 -0.2231 0.0000 -0.1822 0.0000 -0.1131 0.0000 0.1333 0.0000 0.0078 0.0000 -0.5345 0.0000 0.0000 -0.1688 -0.5788 0.0000 0.0000 -0.6357 0.0000 0.0000 -0.0945 0.0000 -0.1668 -0.6387 -0.0982 0.0000 0.0000 0.0000 -0.1382 0.0000 0.0000 0.0000 -0.5528 0.0000 0.0000 0.0000 -0.1759 0.0000 -0.1867 0.0000 -0.8020 0.0000 0.0000 0.0000 0.0930 0.4570

> <atom.prop.CLASS>
BENC NCLA BENC PRPC NCLA NCLA NCLA PRPC NCLA NCLA PRPC NCLA PRPC NCLA NCLA BENC FORN NCLA BENC NCLA BENC NCLA BENC NCLA BENC NCLA BENC NCLA PRPC NCLA NCLA GEHC PRPC NCLA NCLA PRPC NCLA NCLA BENC NCLA BENC PRPC PRPC NCLA NCLA NCLA PRPC NCLA NCLA NCLA PRPC NCLA NCLA NCLA BENC NCLA BENC NCLA MAMN NCLA NCLA NCLA FORO FORO

> <cluster_id>
1

> <rmsd_to_cluster_rep>
0.00    

> <ligRMSD>
1.64    

> <ligCOMD>
1.06    

$$$$
thrombin_baum_14_4_2zda.H_683
     RDKit          3D

 58 60  0  0  1  0  0  0  0  0999 V2000
   17.2649  -12.3432   20.9714 C   0  0  1  0  0  0  0  0  0  0  0  0
   17.3008  -11.6268   21.8081 H   0  0  0  0  0  0  0  0  0  0  0  0
   17.6388  -13.6681   21.4401 N   0  0  0  0  0  0  0  0  0  0  0  0
   18.3356  -11.9821   19.9300 C   0  0  0  0  0  0  0  0  0  0  0  0
   18.5296  -10.9036   19.8674 H   0  0  0  0  0  0  0  0  0  0  0  0
   18.0504  -12.3105   18.9154 H   0  0  0  0  0  0  0  0  0  0  0  0
   19.5590  -12.7863   20.3761 C   0  0  0  0  0  0  0  0  0  0  0  0
   20.0769  -12.2636   21.1968 H   0  0  0  0  0  0  0  0  0  0  0  0
   20.2935  -12.9439   19.5760 H   0  0  0  0  0  0  0  0  0  0  0  0
   18.9333  -14.0806   20.8895 C   0  0  0  0  0  0  0  0  0  0  0  0
   18.7446  -14.7911   20.0700 H   0  0  0  0  0  0  0  0  0  0  0  0
   19.5762  -14.5716   21.6253 H   0  0  0  0  0  0  0  0  0  0  0  0
   17.3805  -15.6976   22.8871 C   0  0  1  0  0  0  0  0  0  0  0  0
   18.1511  -16.1357   22.2213 H   0  0  0  0  0  0  0  0  0  0  0  0
   19.2631  -14.8462   24.3671 C   0  0  0  0  0  0  0  0  0  0  0  0
   15.9024  -12.3795   20.3451 C   0  0  0  0  0  0  0  0  0  0  0  0
   20.4512  -15.5363   24.0693 C   0  0  0  0  0  0  0  0  0  0  0  0
   20.4220  -16.5910   23.8384 H   0  0  0  0  0  0  0  0  0  0  0  0
   21.6745  -14.8549   24.0370 C   0  0  0  0  0  0  0  0  0  0  0  0
   22.5827  -15.3865   23.7936 H   0  0  0  0  0  0  0  0  0  0  0  0
   21.7223  -13.4867   24.3328 C   0  0  0  0  0  0  0  0  0  0  0  0
   22.6672  -12.9638   24.3183 H   0  0  0  0  0  0  0  0  0  0  0  0
   20.5449  -12.7966   24.6476 C   0  0  0  0  0  0  0  0  0  0  0  0
   20.5822  -11.7414   24.8754 H   0  0  0  0  0  0  0  0  0  0  0  0
   19.3181  -13.4718   24.6573 C   0  0  0  0  0  0  0  0  0  0  0  0
   18.4122  -12.9298   24.8860 H   0  0  0  0  0  0  0  0  0  0  0  0
   16.2353  -16.6506   22.8528 N   0  0  0  0  0  0  0  0  0  0  0  0
   15.4694  -16.2886   23.4569 H   0  0  0  0  0  0  0  0  0  0  0  0
   16.5412  -17.5828   23.1974 H   0  0  0  0  0  0  0  0  0  0  0  0
   15.8875  -16.7393   21.8762 H   0  0  0  0  0  0  0  0  0  0  0  0
   16.9143  -14.3530   22.3836 C   0  0  0  0  0  0  0  0  0  0  0  0
    9.8572  -11.4773   24.1440 C   0  0  0  0  0  0  0  0  0  0  0  0
   15.5176  -13.4413   19.8607 O   0  0  0  0  0  0  0  0  0  0  0  0
   15.1534  -11.2628   20.3705 N   0  0  0  0  0  0  0  0  0  0  0  0
   15.4714  -10.4184   20.7936 H   0  0  0  0  0  0  0  0  0  0  0  0
   13.8099  -11.2615   19.8579 C   0  0  0  0  0  0  0  0  0  0  0  0
   13.6202  -12.0964   19.1435 H   0  0  0  0  0  0  0  0  0  0  0  0
   13.6602  -10.3215   19.2810 H   0  0  0  0  0  0  0  0  0  0  0  0
   12.7642  -11.3342   20.9309 C   0  0  0  0  0  0  0  0  0  0  0  0
   12.3569  -12.5709   21.4522 C   0  0  0  0  0  0  0  0  0  0  0  0
   12.7747  -13.4854   21.0565 H   0  0  0  0  0  0  0  0  0  0  0  0
   11.4287  -12.6237   22.4996 C   0  0  0  0  0  0  0  0  0  0  0  0
   11.1496  -13.5951   22.8816 H   0  0  0  0  0  0  0  0  0  0  0  0
   10.8584  -11.4418   23.0430 C   0  0  0  0  0  0  0  0  0  0  0  0
   11.2877  -10.2087   22.4883 C   0  0  0  0  0  0  0  0  0  0  0  0
   10.8960   -9.2705   22.8554 H   0  0  0  0  0  0  0  0  0  0  0  0
   12.2353  -10.1568   21.4648 C   0  0  0  0  0  0  0  0  0  0  0  0
   12.5525   -9.1987   21.0781 H   0  0  0  0  0  0  0  0  0  0  0  0
   15.8554  -13.9078   22.8292 O   0  0  0  0  0  0  0  0  0  0  0  0
   17.9365  -15.5707   24.3363 C   0  0  0  0  0  0  0  0  0  0  0  0
   18.1073  -16.5822   24.7650 H   0  0  0  0  0  0  0  0  0  0  0  0
   17.2132  -15.0410   24.9950 H   0  0  0  0  0  0  0  0  0  0  0  0
    9.8769  -10.5468   25.0992 N   0  0  0  0  0  0  0  0  0  0  0  0
    9.1967  -10.5696   25.8312 H   0  0  0  0  0  0  0  0  0  0  0  0
   10.5621   -9.8194   25.0782 H   0  0  0  0  0  0  0  0  0  0  0  0
    8.9330  -12.4369   24.1799 N   0  0  0  0  0  0  0  0  0  0  0  0
    8.2647  -12.4554   24.9231 H   0  0  0  0  0  0  0  0  0  0  0  0
    8.9088  -13.1398   23.4699 H   0  0  0  0  0  0  0  0  0  0  0  0
  1  2  1  1
  1  3  1  0
  1  4  1  0
  1 16  1  0
  3 10  1  0
  3 31  1  0
  4  5  1  0
  4  6  1  0
  4  7  1  0
  7  8  1  0
  7  9  1  0
  7 10  1  0
 10 11  1  0
 10 12  1  0
 13 14  1  6
 13 27  1  0
 13 31  1  0
 13 50  1  0
 15 17  2  0
 15 25  1  0
 15 50  1  0
 16 33  2  0
 16 34  1  0
 17 18  1  0
 17 19  1  0
 19 20  1  0
 19 21  2  0
 21 22  1  0
 21 23  1  0
 23 24  1  0
 23 25  2  0
 25 26  1  0
 27 28  1  0
 27 29  1  0
 27 30  1  0
 31 49  2  0
 32 44  1  0
 32 53  2  0
 32 56  1  0
 34 35  1  0
 34 36  1  0
 36 37  1  0
 36 38  1  0
 36 39  1  0
 39 40  2  0
 39 47  1  0
 40 41  1  0
 40 42  1  0
 42 43  1  0
 42 44  2  0
 44 45  1  0
 45 46  1  0
 45 47  2  0
 47 48  1  0
 50 51  1  0
 50 52  1  0
 53 54  1  0
 53 55  1  0
 56 57  1  0
 56 58  1  0
M  CHG  2  27   1  53   1
M  END
> <intraLJ>
22.800    

> <intraEL>
4.593     

> <intraDihe>
16.702    

> <interLJ>
0.000     

> <interEJ>
0.000     

> <gridLJ>
-8.171    

> <gridEL>
0.000     

> <totalE>
35.924    

> <LGFE>
-8.171  

> <LE>
-0.282  

> <SMILES>
NC(=[NH2+])c1ccc(CNC(=O)[C@@H]2CCCN2C(=O)[C@H]([NH3+])Cc2ccccc2)cc1

> <atom.dprop.GFE>
0.1682 0.0000 -0.1159 -0.2751 0.0000 0.0000 -0.5435 0.0000 0.0000 -0.5345 0.0000 0.0000 -0.1339 0.0000 -0.1732 0.0000 -0.1556 0.0000 -0.1944 0.0000 -0.1820 0.0000 0.0078 0.0000 -0.1306 0.0000 -1.5070 0.0000 0.0000 0.0000 0.0000 -2.7720 -0.4200 0.2780 0.0000 -0.2348 0.0000 0.0000 -0.1668 -0.1867 0.0000 -0.1698 0.0000 -0.0603 -0.1428 0.0000 -0.1364 0.0000 -0.0990 -0.2907 0.0000 0.0000 0.0000 0.0000 0.0000 0.0000 0.0000 0.0000

> <atom.prop.CLASS>
PRPC NCLA GEHC PRPC NCLA NCLA PRPC NCLA NCLA PRPC NCLA NCLA PRPC NCLA BENC NCLA BENC NCLA BENC NCLA BENC NCLA BENC NCLA BENC NCLA MAMN NCLA NCLA NCLA NCLA MAMC FORO FORN NCLA PRPC NCLA NCLA BENC BENC NCLA BENC NCLA BENC BENC NCLA BENC NCLA FORO PRPC NCLA NCLA NCLA NCLA NCLA NCLA NCLA NCLA

> <cluster_id>
1

> <rmsd_to_cluster_rep>
0.00    

> <ligRMSD>
1.14    

> <ligCOMD>
0.94    

$$$$
thrombin_baum_15_5_2zff.H_419
     RDKit          3D

 52 54  0  0  1  0  0  0  0  0999 V2000
   15.6620  -16.4909   22.9796 N   0  0  0  0  0  0  0  0  0  0  0  0
   15.4811  -16.6809   21.9729 H   0  0  0  0  0  0  0  0  0  0  0  0
   14.9027  -15.8853   23.3536 H   0  0  0  0  0  0  0  0  0  0  0  0
   15.6829  -17.3886   23.5040 H   0  0  0  0  0  0  0  0  0  0  0  0
   16.9669  -15.7866   23.1271 C   0  0  1  0  0  0  0  0  0  0  0  0
   17.7257  -16.4758   22.7083 H   0  0  0  0  0  0  0  0  0  0  0  0
   16.8963  -14.4891   22.3626 C   0  0  0  0  0  0  0  0  0  0  0  0
   15.8639  -13.8246   22.4674 O   0  0  0  0  0  0  0  0  0  0  0  0
   17.2576  -15.5123   24.6330 C   0  0  0  0  0  0  0  0  0  0  0  0
   17.0435  -16.4290   25.2246 H   0  0  0  0  0  0  0  0  0  0  0  0
   16.5946  -14.7041   25.0152 H   0  0  0  0  0  0  0  0  0  0  0  0
   18.7012  -15.1502   24.9168 C   0  0  0  0  0  0  0  0  0  0  0  0
   19.6807  -16.1510   25.0479 C   0  0  0  0  0  0  0  0  0  0  0  0
   19.4170  -17.1904   24.9201 H   0  0  0  0  0  0  0  0  0  0  0  0
   19.0654  -13.8070   25.1183 C   0  0  0  0  0  0  0  0  0  0  0  0
   18.3224  -13.0271   25.0396 H   0  0  0  0  0  0  0  0  0  0  0  0
   21.0093  -15.8114   25.3336 C   0  0  0  0  0  0  0  0  0  0  0  0
   21.7585  -16.5848   25.4186 H   0  0  0  0  0  0  0  0  0  0  0  0
   20.3884  -13.4695   25.4301 C   0  0  0  0  0  0  0  0  0  0  0  0
   20.6588  -12.4358   25.5880 H   0  0  0  0  0  0  0  0  0  0  0  0
   21.3621  -14.4708   25.5308 C   0  0  0  0  0  0  0  0  0  0  0  0
   22.3837  -14.2095   25.7646 H   0  0  0  0  0  0  0  0  0  0  0  0
   17.9334  -14.0890   21.5556 N   0  0  0  0  0  0  0  0  0  0  0  0
   17.9275  -12.8371   20.8145 C   0  0  2  0  0  0  0  0  0  0  0  0
   17.9347  -11.9869   21.5152 H   0  0  0  0  0  0  0  0  0  0  0  0
   16.7435  -12.7761   19.8976 C   0  0  0  0  0  0  0  0  0  0  0  0
   16.4370  -13.7991   19.2901 O   0  0  0  0  0  0  0  0  0  0  0  0
   19.2316  -12.8585   19.9989 C   0  0  0  0  0  0  0  0  0  0  0  0
   19.6467  -11.8577   19.8234 H   0  0  0  0  0  0  0  0  0  0  0  0
   19.0910  -13.3184   19.0051 H   0  0  0  0  0  0  0  0  0  0  0  0
   20.1590  -13.7568   20.8194 C   0  0  0  0  0  0  0  0  0  0  0  0
   20.6100  -13.1812   21.6441 H   0  0  0  0  0  0  0  0  0  0  0  0
   20.9825  -14.1852   20.2336 H   0  0  0  0  0  0  0  0  0  0  0  0
   19.1990  -14.8059   21.3742 C   0  0  0  0  0  0  0  0  0  0  0  0
   19.0293  -15.6198   20.6524 H   0  0  0  0  0  0  0  0  0  0  0  0
   19.5800  -15.2443   22.3020 H   0  0  0  0  0  0  0  0  0  0  0  0
   16.0651  -11.6183   19.8036 N   0  0  0  0  0  0  0  0  0  0  0  0
   16.3182  -10.8141   20.3346 H   0  0  0  0  0  0  0  0  0  0  0  0
   14.9414  -11.4693   18.9182 C   0  0  0  0  0  0  0  0  0  0  0  0
   14.7984  -12.3598   18.2621 H   0  0  0  0  0  0  0  0  0  0  0  0
   15.1457  -10.6140   18.2365 H   0  0  0  0  0  0  0  0  0  0  0  0
   13.6469  -11.1851   19.6166 C   0  0  0  0  0  0  0  0  0  0  0  0
   13.2951   -9.8533   19.8807 C   0  0  0  0  0  0  0  0  0  0  0  0
   13.9482   -9.0511   19.5696 H   0  0  0  0  0  0  0  0  0  0  0  0
   12.0997   -9.5586   20.5450 C   0  0  0  0  0  0  0  0  0  0  0  0
   11.8317   -8.5313   20.7437 H   0  0  0  0  0  0  0  0  0  0  0  0
   11.2504  -10.5961   20.9506 C   0  0  0  0  0  0  0  0  0  0  0  0
   10.3266  -10.3678   21.4613 H   0  0  0  0  0  0  0  0  0  0  0  0
   11.6004  -11.9296   20.6984 C   0  0  0  0  0  0  0  0  0  0  0  0
   10.9467  -12.7285   21.0158 H   0  0  0  0  0  0  0  0  0  0  0  0
   12.8001  -12.2256   20.0374 C   0  0  0  0  0  0  0  0  0  0  0  0
   13.0717  -13.2535   19.8481 H   0  0  0  0  0  0  0  0  0  0  0  0
  1  2  1  0
  1  3  1  0
  1  4  1  0
  1  5  1  0
  5  6  1  6
  5  7  1  0
  5  9  1  0
  7  8  2  0
  7 23  1  0
  9 10  1  0
  9 11  1  0
  9 12  1  0
 12 13  2  0
 12 15  1  0
 13 14  1  0
 13 17  1  0
 15 16  1  0
 15 19  2  0
 17 18  1  0
 17 21  2  0
 19 20  1  0
 19 21  1  0
 21 22  1  0
 23 24  1  0
 23 34  1  0
 24 25  1  1
 24 26  1  0
 24 28  1  0
 26 27  2  0
 26 37  1  0
 28 29  1  0
 28 30  1  0
 28 31  1  0
 31 32  1  0
 31 33  1  0
 31 34  1  0
 34 35  1  0
 34 36  1  0
 37 38  1  0
 37 39  1  0
 39 40  1  0
 39 41  1  0
 39 42  1  0
 42 43  2  0
 42 51  1  0
 43 44  1  0
 43 45  1  0
 45 46  1  0
 45 47  2  0
 47 48  1  0
 47 49  1  0
 49 50  1  0
 49 51  2  0
 51 52  1  0
M  CHG  1   1   1
M  END
> <intraLJ>
21.171    

> <intraEL>
4.684     

> <intraDihe>
14.523    

> <interLJ>
0.000     

> <interEJ>
0.000     

> <gridLJ>
-6.738    

> <gridEL>
0.000     

> <totalE>
33.639    

> <LGFE>
-6.738  

> <LE>
-0.259  

> <SMILES>
[NH3+][C@H](Cc1ccccc1)C(=O)N1CCC[C@H]1C(=O)NCc1ccccc1

> <atom.dprop.GFE>
-1.8750 0.0000 0.0000 0.0000 -0.1339 0.0000 0.0000 -0.0990 -0.1945 0.0000 0.0000 -0.0543 -0.1288 0.0000 -0.0676 0.0000 -0.1844 0.0000 -0.2179 0.0000 -0.2231 0.0000 -0.1688 -0.4692 0.0000 0.0000 0.0930 -0.5435 0.0000 0.0000 -0.5788 0.0000 0.0000 -0.5062 0.0000 0.0000 -0.6140 0.0000 0.0529 0.0000 0.0000 -0.0100 -0.0189 0.0000 -0.1309 0.0000 -0.2483 0.0000 -0.1628 0.0000 -0.2545 0.0000

> <atom.prop.CLASS>
MAMN NCLA NCLA NCLA PRPC NCLA NCLA FORO PRPC NCLA NCLA BENC BENC NCLA BENC NCLA BENC NCLA BENC NCLA BENC NCLA GEHC PRPC NCLA NCLA FORO PRPC NCLA NCLA PRPC NCLA NCLA PRPC NCLA NCLA FORN NCLA PRPC NCLA NCLA BENC BENC NCLA BENC NCLA BENC NCLA BENC NCLA BENC NCLA

> <cluster_id>
1

> <rmsd_to_cluster_rep>
0.00    

> <ligRMSD>
1.46    

> <ligCOMD>
0.96    

$$$$
thrombin_baum_16_6a.H_572
     RDKit          3D

 52 54  0  0  1  0  0  0  0  0999 V2000
   11.0838   -8.6020   20.6910 Cl  0  0  0  0  0  0  0  0  0  0  0  0
   18.1108  -14.8305   24.8228 C   0  0  0  0  0  0  0  0  0  0  0  0
   18.2027  -15.7711   25.4080 H   0  0  0  0  0  0  0  0  0  0  0  0
   17.2179  -14.2835   25.2000 H   0  0  0  0  0  0  0  0  0  0  0  0
   16.7858  -16.0968   23.1135 N   0  0  0  0  0  0  0  0  0  0  0  0
   16.9273  -16.9671   23.6641 H   0  0  0  0  0  0  0  0  0  0  0  0
   16.7021  -16.3332   22.1036 H   0  0  0  0  0  0  0  0  0  0  0  0
   15.9121  -15.6235   23.4238 H   0  0  0  0  0  0  0  0  0  0  0  0
   16.6649  -13.2595   22.8483 O   0  0  0  0  0  0  0  0  0  0  0  0
   17.9352  -15.1723   23.3110 C   0  0  1  0  0  0  0  0  0  0  0  0
   18.8268  -15.7102   22.9340 H   0  0  0  0  0  0  0  0  0  0  0  0
   18.3712  -13.6051   21.4022 N   0  0  0  0  0  0  0  0  0  0  0  0
   16.5023  -14.2194   19.3492 O   0  0  0  0  0  0  0  0  0  0  0  0
   17.6320  -13.9390   22.5040 C   0  0  0  0  0  0  0  0  0  0  0  0
   15.5606  -12.2045   19.8164 N   0  0  0  0  0  0  0  0  0  0  0  0
   15.6586  -11.3013   20.2256 H   0  0  0  0  0  0  0  0  0  0  0  0
   19.7117  -14.1030   21.0817 C   0  0  0  0  0  0  0  0  0  0  0  0
   19.6021  -15.0757   20.5773 H   0  0  0  0  0  0  0  0  0  0  0  0
   20.3457  -14.2420   21.9654 H   0  0  0  0  0  0  0  0  0  0  0  0
   20.2775  -13.0442   20.1425 C   0  0  0  0  0  0  0  0  0  0  0  0
   21.0786  -13.4184   19.4925 H   0  0  0  0  0  0  0  0  0  0  0  0
   20.6940  -12.2063   20.7250 H   0  0  0  0  0  0  0  0  0  0  0  0
   19.0329  -12.5831   19.3725 C   0  0  0  0  0  0  0  0  0  0  0  0
   18.8546  -13.2821   18.5379 H   0  0  0  0  0  0  0  0  0  0  0  0
   19.1522  -11.5871   18.9270 H   0  0  0  0  0  0  0  0  0  0  0  0
   17.9020  -12.6442   20.4153 C   0  0  1  0  0  0  0  0  0  0  0  0
   17.7970  -11.6551   20.8910 H   0  0  0  0  0  0  0  0  0  0  0  0
   16.5879  -13.0799   19.8025 C   0  0  0  0  0  0  0  0  0  0  0  0
   14.2837  -12.4751   19.2053 C   0  0  0  0  0  0  0  0  0  0  0  0
   14.1775  -13.5453   18.9181 H   0  0  0  0  0  0  0  0  0  0  0  0
   14.2355  -11.9074   18.2497 H   0  0  0  0  0  0  0  0  0  0  0  0
   13.0923  -12.0477   20.0235 C   0  0  0  0  0  0  0  0  0  0  0  0
   12.6845  -10.7024   19.9797 C   0  0  0  0  0  0  0  0  0  0  0  0
   13.2158  -10.0011   19.3543 H   0  0  0  0  0  0  0  0  0  0  0  0
   11.5931  -10.2657   20.7427 C   0  0  0  0  0  0  0  0  0  0  0  0
   10.9062  -11.1706   21.5587 C   0  0  0  0  0  0  0  0  0  0  0  0
   10.0658  -10.8330   22.1469 H   0  0  0  0  0  0  0  0  0  0  0  0
   11.3074  -12.5107   21.6134 C   0  0  0  0  0  0  0  0  0  0  0  0
   10.7740  -13.2080   22.2421 H   0  0  0  0  0  0  0  0  0  0  0  0
   12.3950  -12.9520   20.8485 C   0  0  0  0  0  0  0  0  0  0  0  0
   12.8519  -14.6305   20.9166 Cl  0  0  0  0  0  0  0  0  0  0  0  0
   19.3545  -14.0132   25.1135 C   0  0  0  0  0  0  0  0  0  0  0  0
   20.6391  -14.5658   24.9585 C   0  0  0  0  0  0  0  0  0  0  0  0
   20.7557  -15.5873   24.6286 H   0  0  0  0  0  0  0  0  0  0  0  0
   21.7796  -13.7933   25.2173 C   0  0  0  0  0  0  0  0  0  0  0  0
   22.7629  -14.2193   25.0822 H   0  0  0  0  0  0  0  0  0  0  0  0
   21.6450  -12.4736   25.6661 C   0  0  0  0  0  0  0  0  0  0  0  0
   22.5236  -11.8811   25.8751 H   0  0  0  0  0  0  0  0  0  0  0  0
   20.3702  -11.9252   25.8520 C   0  0  0  0  0  0  0  0  0  0  0  0
   20.2653  -10.9096   26.2044 H   0  0  0  0  0  0  0  0  0  0  0  0
   19.2312  -12.6890   25.5699 C   0  0  0  0  0  0  0  0  0  0  0  0
   18.2525  -12.2529   25.7065 H   0  0  0  0  0  0  0  0  0  0  0  0
  1 35  1  0
  2  3  1  0
  2  4  1  0
  2 10  1  0
  2 42  1  0
  5  6  1  0
  5  7  1  0
  5  8  1  0
  5 10  1  0
  9 14  2  0
 10 11  1  6
 10 14  1  0
 12 14  1  0
 12 17  1  0
 12 26  1  0
 13 28  2  0
 15 16  1  0
 15 28  1  0
 15 29  1  0
 17 18  1  0
 17 19  1  0
 17 20  1  0
 20 21  1  0
 20 22  1  0
 20 23  1  0
 23 24  1  0
 23 25  1  0
 23 26  1  0
 26 27  1  1
 26 28  1  0
 29 30  1  0
 29 31  1  0
 29 32  1  0
 32 33  2  0
 32 40  1  0
 33 34  1  0
 33 35  1  0
 35 36  2  0
 36 37  1  0
 36 38  1  0
 38 39  1  0
 38 40  2  0
 40 41  1  0
 42 43  2  0
 42 51  1  0
 43 44  1  0
 43 45  1  0
 45 46  1  0
 45 47  2  0
 47 48  1  0
 47 49  1  0
 49 50  1  0
 49 51  2  0
 51 52  1  0
M  CHG  1   5   1
M  END
> <intraLJ>
18.422    

> <intraEL>
3.945     

> <intraDihe>
15.707    

> <interLJ>
0.000     

> <interEJ>
0.000     

> <gridLJ>
-8.695    

> <gridEL>
0.000     

> <totalE>
29.379    

> <LGFE>
-8.695  

> <LE>
-0.311  

> <SMILES>
[NH3+][C@H](Cc1ccccc1)C(=O)N1CCC[C@H]1C(=O)NCc1cc(Cl)ccc1Cl

> <atom.dprop.GFE>
-1.5330 -0.2394 0.0000 0.0000 -0.8020 0.0000 0.0000 0.0000 0.4570 -0.3197 0.0000 -0.1688 0.0930 0.0000 -0.2570 0.0000 -0.5345 0.0000 0.0000 -0.4582 0.0000 0.0000 -0.6357 0.0000 0.0000 -0.4692 0.0000 0.0000 0.0450 0.0000 0.0000 -0.1399 -0.2432 0.0000 -0.1298 -0.2483 0.0000 -0.2575 0.0000 -0.2401 -2.4700 -0.0676 -0.2131 0.0000 -0.1905 0.0000 0.1147 0.0000 0.1034 0.0000 0.1097 0.0000

> <atom.prop.CLASS>
CLBX PRPC NCLA NCLA MAMN NCLA NCLA NCLA FORO PRPC NCLA GEHC FORO NCLA FORN NCLA PRPC NCLA NCLA PRPC NCLA NCLA PRPC NCLA NCLA PRPC NCLA NCLA PRPC NCLA NCLA BENC BENC NCLA BENC BENC NCLA BENC NCLA BENC CLBX BENC BENC NCLA BENC NCLA BENC NCLA BENC NCLA BENC NCLA

> <cluster_id>
1

> <rmsd_to_cluster_rep>
0.00    

> <ligRMSD>
1.66    

> <ligCOMD>
0.72    

$$$$
thrombin_baum_17_6b.H_533
     RDKit          3D

 55 57  0  0  1  0  0  0  0  0999 V2000
   11.4780   -8.4892   20.6432 Cl  0  0  0  0  0  0  0  0  0  0  0  0
   17.8937  -15.3640   24.9266 C   0  0  0  0  0  0  0  0  0  0  0  0
   18.1031  -16.3088   25.4734 H   0  0  0  0  0  0  0  0  0  0  0  0
   16.8855  -15.0096   25.2374 H   0  0  0  0  0  0  0  0  0  0  0  0
   16.8586  -16.6035   23.0099 N   0  0  0  0  0  0  0  0  0  0  0  0
   16.9828  -17.4937   23.5321 H   0  0  0  0  0  0  0  0  0  0  0  0
   16.9110  -16.7892   21.9874 H   0  0  0  0  0  0  0  0  0  0  0  0
   15.9283  -16.1929   23.2325 H   0  0  0  0  0  0  0  0  0  0  0  0
   16.5855  -13.7923   22.8290 O   0  0  0  0  0  0  0  0  0  0  0  0
   17.9209  -15.6333   23.3906 C   0  0  1  0  0  0  0  0  0  0  0  0
   18.8806  -16.1043   23.1016 H   0  0  0  0  0  0  0  0  0  0  0  0
   18.5166  -13.9203   21.6589 N   0  0  0  0  0  0  0  0  0  0  0  0
   16.7353  -14.1566   19.5655 O   0  0  0  0  0  0  0  0  0  0  0  0
   17.6465  -14.3767   22.6102 C   0  0  0  0  0  0  0  0  0  0  0  0
   16.0776  -12.0025   19.8413 N   0  0  0  0  0  0  0  0  0  0  0  0
   16.2535  -11.1065   20.2401 H   0  0  0  0  0  0  0  0  0  0  0  0
   19.8541  -14.4546   21.3887 C   0  0  0  0  0  0  0  0  0  0  0  0
   19.7459  -15.3225   20.7196 H   0  0  0  0  0  0  0  0  0  0  0  0
   20.3829  -14.7793   22.2927 H   0  0  0  0  0  0  0  0  0  0  0  0
   20.5708  -13.3000   20.6997 C   0  0  0  0  0  0  0  0  0  0  0  0
   21.4172  -13.6181   20.0779 H   0  0  0  0  0  0  0  0  0  0  0  0
   20.9640  -12.5968   21.4519 H   0  0  0  0  0  0  0  0  0  0  0  0
   19.4410  -12.6379   19.8996 C   0  0  0  0  0  0  0  0  0  0  0  0
   19.3157  -13.1825   18.9485 H   0  0  0  0  0  0  0  0  0  0  0  0
   19.6593  -11.5948   19.6370 H   0  0  0  0  0  0  0  0  0  0  0  0
   18.2041  -12.7842   20.8041 C   0  0  1  0  0  0  0  0  0  0  0  0
   18.1007  -11.8783   21.4240 H   0  0  0  0  0  0  0  0  0  0  0  0
   16.9408  -13.0270   20.0043 C   0  0  0  0  0  0  0  0  0  0  0  0
   14.8751  -12.1127   19.0521 C   0  0  0  0  0  0  0  0  0  0  0  0
   14.7995  -13.0974   18.5388 H   0  0  0  0  0  0  0  0  0  0  0  0
   14.9395  -11.3631   18.2321 H   0  0  0  0  0  0  0  0  0  0  0  0
   13.5968  -11.8240   19.8020 C   0  0  0  0  0  0  0  0  0  0  0  0
   13.1692  -10.4865   19.8687 C   0  0  0  0  0  0  0  0  0  0  0  0
   13.7467   -9.7146   19.3824 H   0  0  0  0  0  0  0  0  0  0  0  0
   12.0024  -10.1450   20.5611 C   0  0  0  0  0  0  0  0  0  0  0  0
   11.2491  -11.1369   21.1929 C   0  0  0  0  0  0  0  0  0  0  0  0
   10.3474  -10.8714   21.7248 H   0  0  0  0  0  0  0  0  0  0  0  0
   11.6642  -12.4704   21.1393 C   0  0  0  0  0  0  0  0  0  0  0  0
   11.0758  -13.2288   21.6346 H   0  0  0  0  0  0  0  0  0  0  0  0
   12.8367  -12.8275   20.4543 C   0  0  0  0  0  0  0  0  0  0  0  0
   13.2428  -14.2756   20.4380 C   0  0  0  0  0  0  0  0  0  0  0  0
   14.2693  -14.3672   20.8525 H   0  0  0  0  0  0  0  0  0  0  0  0
   13.2225  -14.6438   19.3900 H   0  0  0  0  0  0  0  0  0  0  0  0
   12.5447  -14.8839   21.0534 H   0  0  0  0  0  0  0  0  0  0  0  0
   18.9359  -14.3592   25.3777 C   0  0  0  0  0  0  0  0  0  0  0  0
   20.3077  -14.6713   25.3502 C   0  0  0  0  0  0  0  0  0  0  0  0
   20.6387  -15.6395   25.0050 H   0  0  0  0  0  0  0  0  0  0  0  0
   21.2586  -13.7254   25.7572 C   0  0  0  0  0  0  0  0  0  0  0  0
   22.3109  -13.9661   25.7195 H   0  0  0  0  0  0  0  0  0  0  0  0
   20.8444  -12.4730   26.2276 C   0  0  0  0  0  0  0  0  0  0  0  0
   21.5763  -11.7474   26.5508 H   0  0  0  0  0  0  0  0  0  0  0  0
   19.4798  -12.1656   26.2879 C   0  0  0  0  0  0  0  0  0  0  0  0
   19.1588  -11.2027   26.6573 H   0  0  0  0  0  0  0  0  0  0  0  0
   18.5314  -13.1010   25.8570 C   0  0  0  0  0  0  0  0  0  0  0  0
   17.4817  -12.8493   25.8970 H   0  0  0  0  0  0  0  0  0  0  0  0
  1 35  1  0
  2  3  1  0
  2  4  1  0
  2 10  1  0
  2 45  1  0
  5  6  1  0
  5  7  1  0
  5  8  1  0
  5 10  1  0
  9 14  2  0
 10 11  1  6
 10 14  1  0
 12 14  1  0
 12 17  1  0
 12 26  1  0
 13 28  2  0
 15 16  1  0
 15 28  1  0
 15 29  1  0
 17 18  1  0
 17 19  1  0
 17 20  1  0
 20 21  1  0
 20 22  1  0
 20 23  1  0
 23 24  1  0
 23 25  1  0
 23 26  1  0
 26 27  1  1
 26 28  1  0
 29 30  1  0
 29 31  1  0
 29 32  1  0
 32 33  2  0
 32 40  1  0
 33 34  1  0
 33 35  1  0
 35 36  2  0
 36 37  1  0
 36 38  1  0
 38 39  1  0
 38 40  2  0
 40 41  1  0
 41 42  1  0
 41 43  1  0
 41 44  1  0
 45 46  2  0
 45 54  1  0
 46 47  1  0
 46 48  1  0
 48 49  1  0
 48 50  2  0
 50 51  1  0
 50 52  1  0
 52 53  1  0
 52 54  2  0
 54 55  1  0
M  CHG  1   5   1
M  END
> <intraLJ>
19.908    

> <intraEL>
4.032     

> <intraDihe>
14.461    

> <interLJ>
0.000     

> <interEJ>
0.000     

> <gridLJ>
-6.888    

> <gridEL>
0.000     

> <totalE>
31.513    

> <LGFE>
-6.888  

> <LE>
-0.246  

> <SMILES>
Cc1ccc(Cl)cc1CNC(=O)[C@@H]1CCCN1C(=O)[C@H]([NH3+])Cc1ccccc1

> <atom.dprop.GFE>
-1.5330 -0.1339 0.0000 0.0000 -1.5070 0.0000 0.0000 0.0000 0.5990 -0.2661 0.0000 -0.1688 0.0930 0.0000 -0.6140 0.0000 -0.5345 0.0000 0.0000 -0.4582 0.0000 0.0000 -0.5435 0.0000 0.0000 -0.4692 0.0000 0.0000 0.0529 0.0000 0.0000 -0.1211 -0.0945 0.0000 -0.1309 -0.2483 0.0000 -0.2575 0.0000 -0.2401 -0.0153 0.0000 0.0000 0.0000 -0.0676 -0.2131 0.0000 -0.1905 0.0000 0.0855 0.0000 0.0277 0.0000 0.0610 0.0000

> <atom.prop.CLASS>
CLBX PRPC NCLA NCLA MAMN NCLA NCLA NCLA FORO PRPC NCLA GEHC FORO NCLA FORN NCLA PRPC NCLA NCLA PRPC NCLA NCLA PRPC NCLA NCLA PRPC NCLA NCLA PRPC NCLA NCLA BENC BENC NCLA BENC BENC NCLA BENC NCLA BENC PRPC NCLA NCLA NCLA BENC BENC NCLA BENC NCLA BENC NCLA BENC NCLA BENC NCLA

> <cluster_id>
1

> <rmsd_to_cluster_rep>
0.00    

> <ligRMSD>
1.80    

> <ligCOMD>
0.81    

$$$$
thrombin_baum_18_6c.H_1120
     RDKit          3D

 56 58  0  0  1  0  0  0  0  0999 V2000
   10.9179   -8.5823   20.2664 Cl  0  0  0  0  0  0  0  0  0  0  0  0
   18.0934  -15.2643   24.8160 C   0  0  0  0  0  0  0  0  0  0  0  0
   18.2386  -16.2276   25.3513 H   0  0  0  0  0  0  0  0  0  0  0  0
   17.1684  -14.7916   25.2155 H   0  0  0  0  0  0  0  0  0  0  0  0
   16.8202  -16.4760   23.0298 N   0  0  0  0  0  0  0  0  0  0  0  0
   16.9768  -17.3688   23.5387 H   0  0  0  0  0  0  0  0  0  0  0  0
   16.7541  -16.6641   22.0085 H   0  0  0  0  0  0  0  0  0  0  0  0
   15.9316  -16.0397   23.3517 H   0  0  0  0  0  0  0  0  0  0  0  0
   16.5681  -13.6973   22.8221 O   0  0  0  0  0  0  0  0  0  0  0  0
   17.9440  -15.5348   23.2870 C   0  0  1  0  0  0  0  0  0  0  0  0
   18.8529  -16.0318   22.8955 H   0  0  0  0  0  0  0  0  0  0  0  0
   18.4351  -13.7959   21.5470 N   0  0  0  0  0  0  0  0  0  0  0  0
   16.5658  -14.0583   19.5403 O   0  0  0  0  0  0  0  0  0  0  0  0
   17.6196  -14.2707   22.5379 C   0  0  0  0  0  0  0  0  0  0  0  0
   15.8827  -11.9150   19.8489 N   0  0  0  0  0  0  0  0  0  0  0  0
   16.0629  -11.0159   20.2385 H   0  0  0  0  0  0  0  0  0  0  0  0
   19.7697  -14.3025   21.2153 C   0  0  0  0  0  0  0  0  0  0  0  0
   19.6486  -15.1711   20.5493 H   0  0  0  0  0  0  0  0  0  0  0  0
   20.3446  -14.6188   22.0938 H   0  0  0  0  0  0  0  0  0  0  0  0
   20.4337  -13.1333   20.4979 C   0  0  0  0  0  0  0  0  0  0  0  0
   21.2549  -13.4351   19.8356 H   0  0  0  0  0  0  0  0  0  0  0  0
   20.8504  -12.4262   21.2337 H   0  0  0  0  0  0  0  0  0  0  0  0
   19.2567  -12.4872   19.7546 C   0  0  0  0  0  0  0  0  0  0  0  0
   19.0980  -13.0279   18.8063 H   0  0  0  0  0  0  0  0  0  0  0  0
   19.4441  -11.4386   19.4898 H   0  0  0  0  0  0  0  0  0  0  0  0
   18.0643  -12.6615   20.7132 C   0  0  1  0  0  0  0  0  0  0  0  0
   17.9722  -11.7607   21.3421 H   0  0  0  0  0  0  0  0  0  0  0  0
   16.7703  -12.9252   19.9707 C   0  0  0  0  0  0  0  0  0  0  0  0
   14.6433  -12.0470   19.1220 C   0  0  0  0  0  0  0  0  0  0  0  0
   14.5357  -13.0551   18.6592 H   0  0  0  0  0  0  0  0  0  0  0  0
   14.6673  -11.3303   18.2713 H   0  0  0  0  0  0  0  0  0  0  0  0
   13.4012  -11.7354   19.9180 C   0  0  0  0  0  0  0  0  0  0  0  0
   12.8020  -10.4783   19.7538 C   0  0  0  0  0  0  0  0  0  0  0  0
   13.2317   -9.7633   19.0681 H   0  0  0  0  0  0  0  0  0  0  0  0
   11.6539  -10.1437   20.4759 C   0  0  0  0  0  0  0  0  0  0  0  0
   11.0959  -11.0642   21.3675 C   0  0  0  0  0  0  0  0  0  0  0  0
   10.2102  -10.8000   21.9262 H   0  0  0  0  0  0  0  0  0  0  0  0
   11.6792  -12.3278   21.5348 C   0  0  0  0  0  0  0  0  0  0  0  0
   11.2202  -13.0040   22.2384 H   0  0  0  0  0  0  0  0  0  0  0  0
   12.8402  -12.6763   20.8080 C   0  0  0  0  0  0  0  0  0  0  0  0
   13.4748  -13.9312   20.9382 O   0  0  0  0  0  0  0  0  0  0  0  0
   12.8552  -14.9041   21.7722 C   0  0  0  0  0  0  0  0  0  0  0  0
   13.4019  -15.8652   21.6605 H   0  0  0  0  0  0  0  0  0  0  0  0
   11.7972  -15.0682   21.4712 H   0  0  0  0  0  0  0  0  0  0  0  0
   12.9038  -14.5974   22.8393 H   0  0  0  0  0  0  0  0  0  0  0  0
   19.2856  -14.3918   25.1580 C   0  0  0  0  0  0  0  0  0  0  0  0
   20.5962  -14.9010   25.1075 C   0  0  0  0  0  0  0  0  0  0  0  0
   20.7703  -15.9280   24.8229 H   0  0  0  0  0  0  0  0  0  0  0  0
   21.6892  -14.0783   25.4124 C   0  0  0  0  0  0  0  0  0  0  0  0
   22.6936  -14.4716   25.3574 H   0  0  0  0  0  0  0  0  0  0  0  0
   21.4788  -12.7501   25.8036 C   0  0  0  0  0  0  0  0  0  0  0  0
   22.3202  -12.1186   26.0482 H   0  0  0  0  0  0  0  0  0  0  0  0
   20.1760  -12.2438   25.8857 C   0  0  0  0  0  0  0  0  0  0  0  0
   20.0123  -11.2215   26.1937 H   0  0  0  0  0  0  0  0  0  0  0  0
   19.0858  -13.0586   25.5573 C   0  0  0  0  0  0  0  0  0  0  0  0
   18.0855  -12.6549   25.6138 H   0  0  0  0  0  0  0  0  0  0  0  0
  1 35  1  0
  2  3  1  0
  2  4  1  0
  2 10  1  0
  2 46  1  0
  5  6  1  0
  5  7  1  0
  5  8  1  0
  5 10  1  0
  9 14  2  0
 10 11  1  6
 10 14  1  0
 12 14  1  0
 12 17  1  0
 12 26  1  0
 13 28  2  0
 15 16  1  0
 15 28  1  0
 15 29  1  0
 17 18  1  0
 17 19  1  0
 17 20  1  0
 20 21  1  0
 20 22  1  0
 20 23  1  0
 23 24  1  0
 23 25  1  0
 23 26  1  0
 26 27  1  1
 26 28  1  0
 29 30  1  0
 29 31  1  0
 29 32  1  0
 32 33  2  0
 32 40  1  0
 33 34  1  0
 33 35  1  0
 35 36  2  0
 36 37  1  0
 36 38  1  0
 38 39  1  0
 38 40  2  0
 40 41  1  0
 41 42  1  0
 42 43  1  0
 42 44  1  0
 42 45  1  0
 46 47  2  0
 46 55  1  0
 47 48  1  0
 47 49  1  0
 49 50  1  0
 49 51  2  0
 51 52  1  0
 51 53  1  0
 53 54  1  0
 53 55  2  0
 55 56  1  0
M  CHG  1   5   1
M  END
> <intraLJ>
20.394    

> <intraEL>
4.955     

> <intraDihe>
14.542    

> <interLJ>
0.000     

> <interEJ>
0.000     

> <gridLJ>
-6.677    

> <gridEL>
0.000     

> <totalE>
33.214    

> <LGFE>
-6.677  

> <LE>
-0.230  

> <SMILES>
COc1ccc(Cl)cc1CNC(=O)[C@@H]1CCCN1C(=O)[C@H]([NH3+])Cc1ccccc1

> <atom.dprop.GFE>
-1.5330 -0.2394 0.0000 0.0000 -1.5070 0.0000 0.0000 0.0000 0.5990 -0.2661 0.0000 -0.1688 0.0930 0.0000 -0.6140 0.0000 -0.5345 0.0000 0.0000 -0.4582 0.0000 0.0000 -0.6357 0.0000 0.0000 -0.4692 0.0000 0.0000 0.1838 0.0000 0.0000 -0.1399 -0.1164 0.0000 -0.1298 -0.2483 0.0000 -0.2320 0.0000 -0.2401 -0.0260 0.1489 0.0000 0.0000 0.0000 -0.0676 -0.2131 0.0000 -0.1905 0.0000 0.1147 0.0000 0.1034 0.0000 0.1097 0.0000

> <atom.prop.CLASS>
CLBX PRPC NCLA NCLA MAMN NCLA NCLA NCLA FORO PRPC NCLA GEHC FORO NCLA FORN NCLA PRPC NCLA NCLA PRPC NCLA NCLA PRPC NCLA NCLA PRPC NCLA NCLA PRPC NCLA NCLA BENC BENC NCLA BENC BENC NCLA BENC NCLA BENC DMEO PRPC NCLA NCLA NCLA BENC BENC NCLA BENC NCLA BENC NCLA BENC NCLA BENC NCLA

> <cluster_id>
1

> <rmsd_to_cluster_rep>
0.00    

> <ligRMSD>
1.72    

> <ligCOMD>
0.78    

$$$$
thrombin_baum_19_6d.H_118
     RDKit          3D

 53 55  0  0  1  0  0  0  0  0999 V2000
   10.9820   -8.6301   20.7154 Cl  0  0  0  0  0  0  0  0  0  0  0  0
   18.0273  -15.2721   24.8228 C   0  0  0  0  0  0  0  0  0  0  0  0
   18.2464  -16.2216   25.3576 H   0  0  0  0  0  0  0  0  0  0  0  0
   17.0658  -14.8752   25.2185 H   0  0  0  0  0  0  0  0  0  0  0  0
   16.8121  -16.5225   23.0230 N   0  0  0  0  0  0  0  0  0  0  0  0
   16.9847  -17.4088   23.5380 H   0  0  0  0  0  0  0  0  0  0  0  0
   16.7660  -16.7165   22.0018 H   0  0  0  0  0  0  0  0  0  0  0  0
   15.9076  -16.1088   23.3302 H   0  0  0  0  0  0  0  0  0  0  0  0
   16.4967  -13.7440   22.8103 O   0  0  0  0  0  0  0  0  0  0  0  0
   17.9070  -15.5512   23.2929 C   0  0  1  0  0  0  0  0  0  0  0  0
   18.8342  -16.0254   22.9163 H   0  0  0  0  0  0  0  0  0  0  0  0
   18.3701  -13.8146   21.5432 N   0  0  0  0  0  0  0  0  0  0  0  0
   16.4155  -14.0553   19.6586 O   0  0  0  0  0  0  0  0  0  0  0  0
   17.5605  -14.2985   22.5344 C   0  0  0  0  0  0  0  0  0  0  0  0
   15.8820  -11.8542   19.7806 N   0  0  0  0  0  0  0  0  0  0  0  0
   16.1204  -10.9403   20.0984 H   0  0  0  0  0  0  0  0  0  0  0  0
   19.6977  -14.3251   21.1906 C   0  0  0  0  0  0  0  0  0  0  0  0
   19.5641  -15.1823   20.5124 H   0  0  0  0  0  0  0  0  0  0  0  0
   20.2788  -14.6591   22.0584 H   0  0  0  0  0  0  0  0  0  0  0  0
   20.3628  -13.1493   20.4851 C   0  0  0  0  0  0  0  0  0  0  0  0
   21.1757  -13.4462   19.8103 H   0  0  0  0  0  0  0  0  0  0  0  0
   20.7913  -12.4566   21.2276 H   0  0  0  0  0  0  0  0  0  0  0  0
   19.1834  -12.4840   19.7631 C   0  0  0  0  0  0  0  0  0  0  0  0
   19.0121  -13.0088   18.8081 H   0  0  0  0  0  0  0  0  0  0  0  0
   19.3754  -11.4326   19.5129 H   0  0  0  0  0  0  0  0  0  0  0  0
   17.9996  -12.6656   20.7303 C   0  0  1  0  0  0  0  0  0  0  0  0
   17.9204  -11.7741   21.3742 H   0  0  0  0  0  0  0  0  0  0  0  0
   16.6968  -12.9071   19.9964 C   0  0  0  0  0  0  0  0  0  0  0  0
   14.6403  -11.9618   19.0573 C   0  0  0  0  0  0  0  0  0  0  0  0
   14.5472  -12.9312   18.5162 H   0  0  0  0  0  0  0  0  0  0  0  0
   14.6357  -11.1788   18.2666 H   0  0  0  0  0  0  0  0  0  0  0  0
   13.4098  -11.7431   19.8983 C   0  0  0  0  0  0  0  0  0  0  0  0
   12.8185  -10.4693   19.9014 C   0  0  0  0  0  0  0  0  0  0  0  0
   13.2442   -9.6774   19.3037 H   0  0  0  0  0  0  0  0  0  0  0  0
   11.6872  -10.2169   20.6850 C   0  0  0  0  0  0  0  0  0  0  0  0
   11.1237  -11.2374   21.4565 C   0  0  0  0  0  0  0  0  0  0  0  0
   10.2469  -11.0389   22.0548 H   0  0  0  0  0  0  0  0  0  0  0  0
   11.7097  -12.5076   21.4698 C   0  0  0  0  0  0  0  0  0  0  0  0
   11.2834  -13.2844   22.0883 H   0  0  0  0  0  0  0  0  0  0  0  0
   12.8619  -12.7581   20.7123 C   0  0  0  0  0  0  0  0  0  0  0  0
   13.4860  -14.0188   20.8348 O   0  0  0  0  0  0  0  0  0  0  0  0
   14.3373  -13.9728   20.3918 H   0  0  0  0  0  0  0  0  0  0  0  0
   19.1447  -14.3080   25.1714 C   0  0  0  0  0  0  0  0  0  0  0  0
   20.4899  -14.7203   25.1596 C   0  0  0  0  0  0  0  0  0  0  0  0
   20.7450  -15.7371   24.9006 H   0  0  0  0  0  0  0  0  0  0  0  0
   21.5125  -13.8136   25.4702 C   0  0  0  0  0  0  0  0  0  0  0  0
   22.5440  -14.1329   25.4450 H   0  0  0  0  0  0  0  0  0  0  0  0
   21.1967  -12.4971   25.8287 C   0  0  0  0  0  0  0  0  0  0  0  0
   21.9839  -11.8008   26.0778 H   0  0  0  0  0  0  0  0  0  0  0  0
   19.8588  -12.0866   25.8725 C   0  0  0  0  0  0  0  0  0  0  0  0
   19.6138  -11.0733   26.1554 H   0  0  0  0  0  0  0  0  0  0  0  0
   18.8389  -12.9856   25.5381 C   0  0  0  0  0  0  0  0  0  0  0  0
   17.8107  -12.6556   25.5648 H   0  0  0  0  0  0  0  0  0  0  0  0
  1 35  1  0
  2  3  1  0
  2  4  1  0
  2 10  1  0
  2 43  1  0
  5  6  1  0
  5  7  1  0
  5  8  1  0
  5 10  1  0
  9 14  2  0
 10 11  1  6
 10 14  1  0
 12 14  1  0
 12 17  1  0
 12 26  1  0
 13 28  2  0
 15 16  1  0
 15 28  1  0
 15 29  1  0
 17 18  1  0
 17 19  1  0
 17 20  1  0
 20 21  1  0
 20 22  1  0
 20 23  1  0
 23 24  1  0
 23 25  1  0
 23 26  1  0
 26 27  1  1
 26 28  1  0
 29 30  1  0
 29 31  1  0
 29 32  1  0
 32 33  2  0
 32 40  1  0
 33 34  1  0
 33 35  1  0
 35 36  2  0
 36 37  1  0
 36 38  1  0
 38 39  1  0
 38 40  2  0
 40 41  1  0
 41 42  1  0
 43 44  2  0
 43 52  1  0
 44 45  1  0
 44 46  1  0
 46 47  1  0
 46 48  2  0
 48 49  1  0
 48 50  1  0
 50 51  1  0
 50 52  2  0
 52 53  1  0
M  CHG  1   5   1
M  END
> <intraLJ>
19.320    

> <intraEL>
3.087     

> <intraDihe>
14.621    

> <interLJ>
0.000     

> <interEJ>
0.000     

> <gridLJ>
-7.222    

> <gridEL>
0.000     

> <totalE>
29.806    

> <LGFE>
-7.222  

> <LE>
-0.258  

> <SMILES>
[NH3+][C@H](Cc1ccccc1)C(=O)N1CCC[C@H]1C(=O)NCc1cc(Cl)ccc1O

> <atom.dprop.GFE>
-1.5330 -0.2394 0.0000 0.0000 -1.5070 0.0000 0.0000 0.0000 0.5990 -0.2661 0.0000 -0.1688 0.0930 0.0000 -0.6140 0.0000 -0.5345 0.0000 0.0000 -0.4582 0.0000 0.0000 -0.6357 0.0000 0.0000 -0.4692 0.0000 0.0000 0.1838 0.0000 0.0000 -0.1399 -0.2432 0.0000 -0.1298 -0.2483 0.0000 -0.2575 0.0000 -0.2401 -0.2040 0.0000 -0.0676 -0.2131 0.0000 -0.1905 0.0000 0.1147 0.0000 0.0277 0.0000 0.1199 0.0000

> <atom.prop.CLASS>
CLBX PRPC NCLA NCLA MAMN NCLA NCLA NCLA FORO PRPC NCLA GEHC FORO NCLA FORN NCLA PRPC NCLA NCLA PRPC NCLA NCLA PRPC NCLA NCLA PRPC NCLA NCLA PRPC NCLA NCLA BENC BENC NCLA BENC BENC NCLA BENC NCLA BENC MEOO NCLA BENC BENC NCLA BENC NCLA BENC NCLA BENC NCLA BENC NCLA

> <cluster_id>
1

> <rmsd_to_cluster_rep>
0.00    

> <ligRMSD>
1.66    

> <ligCOMD>
0.75    

$$$$
thrombin_baum_20_6e.H_461
     RDKit          3D

 52 54  0  0  1  0  0  0  0  0999 V2000
   10.7961  -13.6157   22.6329 Cl  0  0  0  0  0  0  0  0  0  0  0  0
   18.1654  -14.9306   24.2087 C   0  0  0  0  0  0  0  0  0  0  0  0
   18.1768  -15.9439   24.6653 H   0  0  0  0  0  0  0  0  0  0  0  0
   17.5524  -14.2715   24.8633 H   0  0  0  0  0  0  0  0  0  0  0  0
   16.2560  -15.7621   22.8142 N   0  0  0  0  0  0  0  0  0  0  0  0
   16.4121  -16.7190   23.1891 H   0  0  0  0  0  0  0  0  0  0  0  0
   15.8683  -15.8244   21.8506 H   0  0  0  0  0  0  0  0  0  0  0  0
   15.5783  -15.2542   23.4195 H   0  0  0  0  0  0  0  0  0  0  0  0
   16.3347  -12.9991   22.8348 O   0  0  0  0  0  0  0  0  0  0  0  0
   17.5386  -15.0081   22.7826 C   0  0  1  0  0  0  0  0  0  0  0  0
   18.2058  -15.5714   22.1015 H   0  0  0  0  0  0  0  0  0  0  0  0
   17.8290  -13.1333   21.1426 N   0  0  0  0  0  0  0  0  0  0  0  0
   15.4579  -13.1616   19.8962 O   0  0  0  0  0  0  0  0  0  0  0  0
   17.2119  -13.6379   22.2538 C   0  0  0  0  0  0  0  0  0  0  0  0
   15.2205  -10.9064   19.8472 N   0  0  0  0  0  0  0  0  0  0  0  0
   15.6210  -10.0071   20.0024 H   0  0  0  0  0  0  0  0  0  0  0  0
   19.0141  -13.6934   20.4875 C   0  0  0  0  0  0  0  0  0  0  0  0
   18.6820  -14.4937   19.8079 H   0  0  0  0  0  0  0  0  0  0  0  0
   19.7400  -14.1174   21.1915 H   0  0  0  0  0  0  0  0  0  0  0  0
   19.5948  -12.5111   19.7217 C   0  0  0  0  0  0  0  0  0  0  0  0
   20.2282  -12.8056   18.8754 H   0  0  0  0  0  0  0  0  0  0  0  0
   20.2132  -11.8932   20.3931 H   0  0  0  0  0  0  0  0  0  0  0  0
   18.3377  -11.7371   19.3025 C   0  0  0  0  0  0  0  0  0  0  0  0
   17.9353  -12.1901   18.3806 H   0  0  0  0  0  0  0  0  0  0  0  0
   18.5431  -10.6842   19.0705 H   0  0  0  0  0  0  0  0  0  0  0  0
   17.3736  -11.9146   20.4892 C   0  0  1  0  0  0  0  0  0  0  0  0
   17.4910  -11.0639   21.1806 H   0  0  0  0  0  0  0  0  0  0  0  0
   15.9327  -12.0368   20.0375 C   0  0  0  0  0  0  0  0  0  0  0  0
   13.8569  -10.9173   19.3743 C   0  0  0  0  0  0  0  0  0  0  0  0
   13.6494  -11.7816   18.7031 H   0  0  0  0  0  0  0  0  0  0  0  0
   13.6994  -10.0072   18.7542 H   0  0  0  0  0  0  0  0  0  0  0  0
   12.8142  -10.8916   20.4586 C   0  0  0  0  0  0  0  0  0  0  0  0
   12.3534  -12.1054   20.9915 C   0  0  0  0  0  0  0  0  0  0  0  0
   12.7578  -13.0395   20.6321 H   0  0  0  0  0  0  0  0  0  0  0  0
   11.3658  -12.1087   21.9817 C   0  0  0  0  0  0  0  0  0  0  0  0
   10.8277  -10.9081   22.4543 C   0  0  0  0  0  0  0  0  0  0  0  0
   10.0660  -10.9229   23.2195 H   0  0  0  0  0  0  0  0  0  0  0  0
   11.2752   -9.6898   21.9318 C   0  0  0  0  0  0  0  0  0  0  0  0
   10.8572   -8.7629   22.2953 H   0  0  0  0  0  0  0  0  0  0  0  0
   12.2559   -9.6981   20.9422 C   0  0  0  0  0  0  0  0  0  0  0  0
   12.6636   -8.5007   20.4471 F   0  0  0  0  0  0  0  0  0  0  0  0
   19.5993  -14.4370   24.2075 C   0  0  0  0  0  0  0  0  0  0  0  0
   20.6699  -15.3118   23.9456 C   0  0  0  0  0  0  0  0  0  0  0  0
   20.4824  -16.3553   23.7410 H   0  0  0  0  0  0  0  0  0  0  0  0
   21.9882  -14.8357   23.9342 C   0  0  0  0  0  0  0  0  0  0  0  0
   22.8042  -15.5094   23.7177 H   0  0  0  0  0  0  0  0  0  0  0  0
   22.2496  -13.4896   24.2186 C   0  0  0  0  0  0  0  0  0  0  0  0
   23.2662  -13.1245   24.2197 H   0  0  0  0  0  0  0  0  0  0  0  0
   21.1928  -12.6191   24.5111 C   0  0  0  0  0  0  0  0  0  0  0  0
   21.3938  -11.5824   24.7377 H   0  0  0  0  0  0  0  0  0  0  0  0
   19.8740  -13.0890   24.4971 C   0  0  0  0  0  0  0  0  0  0  0  0
   19.0652  -12.4064   24.7129 H   0  0  0  0  0  0  0  0  0  0  0  0
  1 35  1  0
  2  3  1  0
  2  4  1  0
  2 10  1  0
  2 42  1  0
  5  6  1  0
  5  7  1  0
  5  8  1  0
  5 10  1  0
  9 14  2  0
 10 11  1  6
 10 14  1  0
 12 14  1  0
 12 17  1  0
 12 26  1  0
 13 28  2  0
 15 16  1  0
 15 28  1  0
 15 29  1  0
 17 18  1  0
 17 19  1  0
 17 20  1  0
 20 21  1  0
 20 22  1  0
 20 23  1  0
 23 24  1  0
 23 25  1  0
 23 26  1  0
 26 27  1  1
 26 28  1  0
 29 30  1  0
 29 31  1  0
 29 32  1  0
 32 33  2  0
 32 40  1  0
 33 34  1  0
 33 35  1  0
 35 36  2  0
 36 37  1  0
 36 38  1  0
 38 39  1  0
 38 40  2  0
 40 41  1  0
 42 43  2  0
 42 51  1  0
 43 44  1  0
 43 45  1  0
 45 46  1  0
 45 47  2  0
 47 48  1  0
 47 49  1  0
 49 50  1  0
 49 51  2  0
 51 52  1  0
M  CHG  1   5   1
M  END
> <intraLJ>
18.412    

> <intraEL>
3.576     

> <intraDihe>
14.399    

> <interLJ>
0.000     

> <interEJ>
0.000     

> <gridLJ>
-7.737    

> <gridEL>
0.000     

> <totalE>
28.648    

> <LGFE>
-7.737  

> <LE>
-0.276  

> <SMILES>
[NH3+][C@H](Cc1ccccc1)C(=O)N1CCC[C@H]1C(=O)NCc1cc(Cl)ccc1F

> <atom.dprop.GFE>
-1.7940 -0.2394 0.0000 0.0000 -0.8910 0.0000 0.0000 0.0000 0.4570 -0.1455 0.0000 -0.1009 -0.4200 0.0000 -0.1900 0.0000 -0.6027 0.0000 0.0000 -0.6357 0.0000 0.0000 -0.2164 0.0000 0.0000 -0.0250 0.0000 0.0000 -0.0360 0.0000 0.0000 -0.2432 -0.1460 0.0000 -0.1759 -0.1824 0.0000 -0.1428 0.0000 -0.1364 -1.4040 -0.1306 -0.1824 0.0000 -0.1822 0.0000 -0.1131 0.0000 0.1333 0.0000 0.0078 0.0000

> <atom.prop.CLASS>
CLBX PRPC NCLA NCLA MAMN NCLA NCLA NCLA FORO PRPC NCLA GEHC FORO NCLA FORN NCLA PRPC NCLA NCLA PRPC NCLA NCLA PRPC NCLA NCLA PRPC NCLA NCLA PRPC NCLA NCLA BENC BENC NCLA BENC BENC NCLA BENC NCLA BENC FLBX BENC BENC NCLA BENC NCLA BENC NCLA BENC NCLA BENC NCLA

> <cluster_id>
1

> <rmsd_to_cluster_rep>
0.00    

> <ligRMSD>
1.89    

> <ligCOMD>
0.79    

$$$$
thrombin_baum_21_7a.H_713
     RDKit          3D

 58 60  0  0  1  0  0  0  0  0999 V2000
   10.8826   -8.4737   23.3820 C   0  0  0  0  0  0  0  0  0  0  0  0
    9.9541   -8.6349   23.9718 H   0  0  0  0  0  0  0  0  0  0  0  0
   10.7359   -7.6179   22.6887 H   0  0  0  0  0  0  0  0  0  0  0  0
   11.7274   -8.2604   24.0714 H   0  0  0  0  0  0  0  0  0  0  0  0
   17.6412  -16.1727   23.8491 C   0  0  0  0  0  0  0  0  0  0  0  0
   17.7253  -17.2755   23.9601 H   0  0  0  0  0  0  0  0  0  0  0  0
   16.9287  -15.8083   24.6226 H   0  0  0  0  0  0  0  0  0  0  0  0
   15.8425  -16.5601   22.1473 N   0  0  0  0  0  0  0  0  0  0  0  0
   15.9915  -17.5848   22.2381 H   0  0  0  0  0  0  0  0  0  0  0  0
   15.5199  -16.3391   21.1830 H   0  0  0  0  0  0  0  0  0  0  0  0
   15.1175  -16.2492   22.8265 H   0  0  0  0  0  0  0  0  0  0  0  0
   15.7730  -13.9549   22.8469 O   0  0  0  0  0  0  0  0  0  0  0  0
   17.1102  -15.8311   22.4230 C   0  0  1  0  0  0  0  0  0  0  0  0
   17.8307  -16.1725   21.6544 H   0  0  0  0  0  0  0  0  0  0  0  0
   17.5784  -13.5259   21.5540 N   0  0  0  0  0  0  0  0  0  0  0  0
   15.5180  -13.0248   19.8837 O   0  0  0  0  0  0  0  0  0  0  0  0
   16.7931  -14.3660   22.2941 C   0  0  0  0  0  0  0  0  0  0  0  0
   15.1084  -10.9664   20.7458 N   0  0  0  0  0  0  0  0  0  0  0  0
   15.4009  -10.2216   21.3394 H   0  0  0  0  0  0  0  0  0  0  0  0
   18.8817  -13.8564   20.9715 C   0  0  0  0  0  0  0  0  0  0  0  0
   18.7067  -14.3651   20.0107 H   0  0  0  0  0  0  0  0  0  0  0  0
   19.4865  -14.5153   21.6059 H   0  0  0  0  0  0  0  0  0  0  0  0
   19.5437  -12.4981   20.7757 C   0  0  0  0  0  0  0  0  0  0  0  0
   20.3283  -12.4995   20.0085 H   0  0  0  0  0  0  0  0  0  0  0  0
   20.0086  -12.1651   21.7180 H   0  0  0  0  0  0  0  0  0  0  0  0
   18.3524  -11.5952   20.4283 C   0  0  0  0  0  0  0  0  0  0  0  0
   18.1380  -11.6926   19.3505 H   0  0  0  0  0  0  0  0  0  0  0  0
   18.5552  -10.5324   20.6126 H   0  0  0  0  0  0  0  0  0  0  0  0
   17.2002  -12.1456   21.2879 C   0  0  1  0  0  0  0  0  0  0  0  0
   17.1601  -11.5881   22.2382 H   0  0  0  0  0  0  0  0  0  0  0  0
   15.8686  -12.0673   20.5700 C   0  0  0  0  0  0  0  0  0  0  0  0
   13.8515  -10.7685   20.0662 C   0  0  0  0  0  0  0  0  0  0  0  0
   13.7297  -11.4575   19.2007 H   0  0  0  0  0  0  0  0  0  0  0  0
   13.8634   -9.7476   19.6235 H   0  0  0  0  0  0  0  0  0  0  0  0
   12.6342  -10.8400   20.9574 C   0  0  0  0  0  0  0  0  0  0  0  0
   12.3097   -9.6997   21.7134 C   0  0  0  0  0  0  0  0  0  0  0  0
   12.9177   -8.8108   21.6289 H   0  0  0  0  0  0  0  0  0  0  0  0
   11.2081   -9.6998   22.5805 C   0  0  0  0  0  0  0  0  0  0  0  0
   10.4202  -10.8524   22.6932 C   0  0  0  0  0  0  0  0  0  0  0  0
    9.5685  -10.8624   23.3576 H   0  0  0  0  0  0  0  0  0  0  0  0
   10.7326  -11.9939   21.9499 C   0  0  0  0  0  0  0  0  0  0  0  0
   10.1172  -12.8763   22.0491 H   0  0  0  0  0  0  0  0  0  0  0  0
   11.8370  -12.0046   21.0843 C   0  0  0  0  0  0  0  0  0  0  0  0
   12.1323  -13.2649   20.3172 C   0  0  0  0  0  0  0  0  0  0  0  0
   11.4200  -14.0703   20.6000 H   0  0  0  0  0  0  0  0  0  0  0  0
   13.1672  -13.5946   20.5497 H   0  0  0  0  0  0  0  0  0  0  0  0
   12.0355  -13.0562   19.2303 H   0  0  0  0  0  0  0  0  0  0  0  0
   19.0170  -15.6002   24.1299 C   0  0  0  0  0  0  0  0  0  0  0  0
   20.1838  -16.3053   23.7811 C   0  0  0  0  0  0  0  0  0  0  0  0
   20.1135  -17.2722   23.3055 H   0  0  0  0  0  0  0  0  0  0  0  0
   21.4476  -15.7548   24.0348 C   0  0  0  0  0  0  0  0  0  0  0  0
   22.3390  -16.2946   23.7511 H   0  0  0  0  0  0  0  0  0  0  0  0
   21.5557  -14.5115   24.6702 C   0  0  0  0  0  0  0  0  0  0  0  0
   22.5295  -14.0915   24.8749 H   0  0  0  0  0  0  0  0  0  0  0  0
   20.4002  -13.8175   25.0489 C   0  0  0  0  0  0  0  0  0  0  0  0
   20.4825  -12.8618   25.5456 H   0  0  0  0  0  0  0  0  0  0  0  0
   19.1377  -14.3555   24.7722 C   0  0  0  0  0  0  0  0  0  0  0  0
   18.2525  -13.8065   25.0584 H   0  0  0  0  0  0  0  0  0  0  0  0
  1  2  1  0
  1  3  1  0
  1  4  1  0
  1 38  1  0
  5  6  1  0
  5  7  1  0
  5 13  1  0
  5 48  1  0
  8  9  1  0
  8 10  1  0
  8 11  1  0
  8 13  1  0
 12 17  2  0
 13 14  1  6
 13 17  1  0
 15 17  1  0
 15 20  1  0
 15 29  1  0
 16 31  2  0
 18 19  1  0
 18 31  1  0
 18 32  1  0
 20 21  1  0
 20 22  1  0
 20 23  1  0
 23 24  1  0
 23 25  1  0
 23 26  1  0
 26 27  1  0
 26 28  1  0
 26 29  1  0
 29 30  1  1
 29 31  1  0
 32 33  1  0
 32 34  1  0
 32 35  1  0
 35 36  2  0
 35 43  1  0
 36 37  1  0
 36 38  1  0
 38 39  2  0
 39 40  1  0
 39 41  1  0
 41 42  1  0
 41 43  2  0
 43 44  1  0
 44 45  1  0
 44 46  1  0
 44 47  1  0
 48 49  2  0
 48 57  1  0
 49 50  1  0
 49 51  1  0
 51 52  1  0
 51 53  2  0
 53 54  1  0
 53 55  1  0
 55 56  1  0
 55 57  2  0
 57 58  1  0
M  CHG  1   8   1
M  END
> <intraLJ>
20.744    

> <intraEL>
2.999     

> <intraDihe>
13.929    

> <interLJ>
0.000     

> <interEJ>
0.000     

> <gridLJ>
-6.508    

> <gridEL>
0.000     

> <totalE>
31.164    

> <LGFE>
-6.508  

> <LE>
-0.232  

> <SMILES>
Cc1ccc(C)c(CNC(=O)[C@@H]2CCCN2C(=O)[C@H]([NH3+])Cc2ccccc2)c1

> <atom.dprop.GFE>
-0.3333 0.0000 0.0000 0.0000 -0.1945 0.0000 0.0000 -1.6990 0.0000 0.0000 0.0000 -0.0990 -0.0153 0.0000 -0.1159 -0.4200 0.0000 0.2780 0.0000 -0.5345 0.0000 0.0000 -0.5435 0.0000 0.0000 -0.2751 0.0000 0.0000 0.1682 0.0000 0.0000 -0.2348 0.0000 0.0000 -0.1668 -0.1364 0.0000 -0.1428 -0.1824 0.0000 -0.2226 0.0000 -0.2320 -0.3330 0.0000 0.0000 0.0000 -0.1445 -0.1914 0.0000 -0.1944 0.0000 -0.1944 0.0000 -0.2179 0.0000 -0.1306 0.0000

> <atom.prop.CLASS>
PRPC NCLA NCLA NCLA PRPC NCLA NCLA MAMN NCLA NCLA NCLA FORO PRPC NCLA GEHC FORO NCLA FORN NCLA PRPC NCLA NCLA PRPC NCLA NCLA PRPC NCLA NCLA PRPC NCLA NCLA PRPC NCLA NCLA BENC BENC NCLA BENC BENC NCLA BENC NCLA BENC PRPC NCLA NCLA NCLA BENC BENC NCLA BENC NCLA BENC NCLA BENC NCLA BENC NCLA

> <cluster_id>
1

> <rmsd_to_cluster_rep>
0.00    

> <ligRMSD>
1.22    

> <ligCOMD>
0.98    

$$$$
thrombin_baum_22_7b.H_622
     RDKit          3D

 52 54  0  0  1  0  0  0  0  0999 V2000
   17.6422  -15.7612   24.3675 C   0  0  0  0  0  0  0  0  0  0  0  0
   17.6374  -16.7772   24.8183 H   0  0  0  0  0  0  0  0  0  0  0  0
   17.0415  -15.0957   25.0271 H   0  0  0  0  0  0  0  0  0  0  0  0
   15.6733  -16.4695   22.9882 N   0  0  0  0  0  0  0  0  0  0  0  0
   15.7534  -17.4272   23.3845 H   0  0  0  0  0  0  0  0  0  0  0  0
   15.2820  -16.5225   22.0255 H   0  0  0  0  0  0  0  0  0  0  0  0
   15.0379  -15.8964   23.5810 H   0  0  0  0  0  0  0  0  0  0  0  0
   15.8516  -13.7876   22.8319 O   0  0  0  0  0  0  0  0  0  0  0  0
   17.0114  -15.8200   22.9423 C   0  0  1  0  0  0  0  0  0  0  0  0
   17.6321  -16.4489   22.2747 H   0  0  0  0  0  0  0  0  0  0  0  0
   17.5813  -13.9405   21.3825 N   0  0  0  0  0  0  0  0  0  0  0  0
   15.6165  -13.2925   19.3897 O   0  0  0  0  0  0  0  0  0  0  0  0
   16.7942  -14.4400   22.3834 C   0  0  0  0  0  0  0  0  0  0  0  0
   15.1791  -11.4972   20.7039 N   0  0  0  0  0  0  0  0  0  0  0  0
   15.4813  -10.8739   21.4201 H   0  0  0  0  0  0  0  0  0  0  0  0
   18.7322  -14.6145   20.7756 C   0  0  0  0  0  0  0  0  0  0  0  0
   18.3567  -15.2941   19.9947 H   0  0  0  0  0  0  0  0  0  0  0  0
   19.3187  -15.2022   21.4919 H   0  0  0  0  0  0  0  0  0  0  0  0
   19.5471  -13.4722   20.1818 C   0  0  0  0  0  0  0  0  0  0  0  0
   20.2104  -13.7852   19.3656 H   0  0  0  0  0  0  0  0  0  0  0  0
   20.1798  -13.0152   20.9601 H   0  0  0  0  0  0  0  0  0  0  0  0
   18.4599  -12.4836   19.7392 C   0  0  0  0  0  0  0  0  0  0  0  0
   18.0881  -12.7889   18.7465 H   0  0  0  0  0  0  0  0  0  0  0  0
   18.8351  -11.4578   19.6314 H   0  0  0  0  0  0  0  0  0  0  0  0
   17.3701  -12.6152   20.8184 C   0  0  1  0  0  0  0  0  0  0  0  0
   17.5398  -11.8547   21.5983 H   0  0  0  0  0  0  0  0  0  0  0  0
   15.9777  -12.4797   20.2380 C   0  0  0  0  0  0  0  0  0  0  0  0
   13.8563  -11.2609   20.1795 C   0  0  0  0  0  0  0  0  0  0  0  0
   13.5244  -12.0696   19.4870 H   0  0  0  0  0  0  0  0  0  0  0  0
   13.8832  -10.3282   19.5737 H   0  0  0  0  0  0  0  0  0  0  0  0
   12.7971  -11.0743   21.2259 C   0  0  0  0  0  0  0  0  0  0  0  0
   12.5132   -9.7845   21.7035 C   0  0  0  0  0  0  0  0  0  0  0  0
   13.0436   -8.9321   21.3058 H   0  0  0  0  0  0  0  0  0  0  0  0
   11.5471   -9.5989   22.6997 C   0  0  0  0  0  0  0  0  0  0  0  0
   11.3314   -8.6068   23.0670 H   0  0  0  0  0  0  0  0  0  0  0  0
   10.8586  -10.7016   23.2202 C   0  0  0  0  0  0  0  0  0  0  0  0
    9.6581  -10.4734   24.4562 Cl  0  0  0  0  0  0  0  0  0  0  0  0
   11.1370  -11.9903   22.7493 C   0  0  0  0  0  0  0  0  0  0  0  0
   10.6056  -12.8381   23.1549 H   0  0  0  0  0  0  0  0  0  0  0  0
   12.1078  -12.1781   21.7579 C   0  0  0  0  0  0  0  0  0  0  0  0
   12.3251  -13.1744   21.4025 H   0  0  0  0  0  0  0  0  0  0  0  0
   19.0840  -15.2916   24.3664 C   0  0  0  0  0  0  0  0  0  0  0  0
   20.1428  -16.1937   24.1536 C   0  0  0  0  0  0  0  0  0  0  0  0
   19.9400  -17.2413   23.9878 H   0  0  0  0  0  0  0  0  0  0  0  0
   21.4690  -15.7405   24.1414 C   0  0  0  0  0  0  0  0  0  0  0  0
   22.2761  -16.4358   23.9627 H   0  0  0  0  0  0  0  0  0  0  0  0
   21.7499  -14.3887   24.3761 C   0  0  0  0  0  0  0  0  0  0  0  0
   22.7724  -14.0409   24.3766 H   0  0  0  0  0  0  0  0  0  0  0  0
   20.7044  -13.4899   24.6195 C   0  0  0  0  0  0  0  0  0  0  0  0
   20.9203  -12.4484   24.8077 H   0  0  0  0  0  0  0  0  0  0  0  0
   19.3781  -13.9380   24.6063 C   0  0  0  0  0  0  0  0  0  0  0  0
   18.5783  -13.2340   24.7841 H   0  0  0  0  0  0  0  0  0  0  0  0
  1  2  1  0
  1  3  1  0
  1  9  1  0
  1 42  1  0
  4  5  1  0
  4  6  1  0
  4  7  1  0
  4  9  1  0
  8 13  2  0
  9 10  1  6
  9 13  1  0
 11 13  1  0
 11 16  1  0
 11 25  1  0
 12 27  2  0
 14 15  1  0
 14 27  1  0
 14 28  1  0
 16 17  1  0
 16 18  1  0
 16 19  1  0
 19 20  1  0
 19 21  1  0
 19 22  1  0
 22 23  1  0
 22 24  1  0
 22 25  1  0
 25 26  1  1
 25 27  1  0
 28 29  1  0
 28 30  1  0
 28 31  1  0
 31 32  2  0
 31 40  1  0
 32 33  1  0
 32 34  1  0
 34 35  1  0
 34 36  2  0
 36 37  1  0
 36 38  1  0
 38 39  1  0
 38 40  2  0
 40 41  1  0
 42 43  2  0
 42 51  1  0
 43 44  1  0
 43 45  1  0
 45 46  1  0
 45 47  2  0
 47 48  1  0
 47 49  1  0
 49 50  1  0
 49 51  2  0
 51 52  1  0
M  CHG  1   4   1
M  END
> <intraLJ>
20.079    

> <intraEL>
4.231     

> <intraDihe>
14.194    

> <interLJ>
0.000     

> <interEJ>
0.000     

> <gridLJ>
-7.566    

> <gridEL>
0.000     

> <totalE>
30.938    

> <LGFE>
-7.566  

> <LE>
-0.280  

> <SMILES>
[NH3+][C@H](Cc1ccccc1)C(=O)N1CCC[C@H]1C(=O)NCc1ccc(Cl)cc1

> <atom.dprop.GFE>
-0.1945 0.0000 0.0000 -1.8750 0.0000 0.0000 0.0000 -0.0990 -0.1339 0.0000 -0.1159 -0.2180 0.0000 0.2190 0.0000 -0.3763 0.0000 0.0000 -0.6027 0.0000 0.0000 -0.4282 0.0000 0.0000 -0.1951 0.0000 0.0000 -0.2348 0.0000 0.0000 -0.1668 -0.1364 0.0000 -0.1428 0.0000 -0.0603 -1.4200 -0.1759 0.0000 -0.1460 0.0000 -0.1732 -0.1556 0.0000 -0.1944 0.0000 -0.1820 0.0000 -0.2276 0.0000 -0.1306 0.0000

> <atom.prop.CLASS>
PRPC NCLA NCLA MAMN NCLA NCLA NCLA FORO PRPC NCLA GEHC FORO NCLA FORN NCLA PRPC NCLA NCLA PRPC NCLA NCLA PRPC NCLA NCLA PRPC NCLA NCLA PRPC NCLA NCLA BENC BENC NCLA BENC NCLA BENC CLBX BENC NCLA BENC NCLA BENC BENC NCLA BENC NCLA BENC NCLA BENC NCLA BENC NCLA

> <cluster_id>
1

> <rmsd_to_cluster_rep>
0.00    

> <ligRMSD>
1.07    

> <ligCOMD>
1.00    

$$$$
thrombin_baum_23_7c.H_255
     RDKit          3D

 52 54  0  0  1  0  0  0  0  0999 V2000
   17.5732  -15.7347   24.3437 C   0  0  0  0  0  0  0  0  0  0  0  0
   17.5316  -16.7508   24.7924 H   0  0  0  0  0  0  0  0  0  0  0  0
   16.9484  -15.0616   24.9724 H   0  0  0  0  0  0  0  0  0  0  0  0
   15.6994  -16.4783   22.8546 N   0  0  0  0  0  0  0  0  0  0  0  0
   15.7920  -17.4409   23.2359 H   0  0  0  0  0  0  0  0  0  0  0  0
   15.3577  -16.5238   21.8727 H   0  0  0  0  0  0  0  0  0  0  0  0
   15.0165  -15.9387   23.4257 H   0  0  0  0  0  0  0  0  0  0  0  0
   15.7708  -13.8067   22.7263 O   0  0  0  0  0  0  0  0  0  0  0  0
   17.0155  -15.7844   22.8879 C   0  0  1  0  0  0  0  0  0  0  0  0
   17.6891  -16.3784   22.2400 H   0  0  0  0  0  0  0  0  0  0  0  0
   17.6252  -13.8369   21.4304 N   0  0  0  0  0  0  0  0  0  0  0  0
   15.8372  -13.3238   19.2367 O   0  0  0  0  0  0  0  0  0  0  0  0
   16.7795  -14.4009   22.3458 C   0  0  0  0  0  0  0  0  0  0  0  0
   15.1305  -11.5805   20.5078 N   0  0  0  0  0  0  0  0  0  0  0  0
   15.3150  -10.9477   21.2549 H   0  0  0  0  0  0  0  0  0  0  0  0
   18.8831  -14.4150   20.9500 C   0  0  0  0  0  0  0  0  0  0  0  0
   18.6462  -15.1179   20.1361 H   0  0  0  0  0  0  0  0  0  0  0  0
   19.4352  -14.9586   21.7258 H   0  0  0  0  0  0  0  0  0  0  0  0
   19.6645  -13.2095   20.4413 C   0  0  0  0  0  0  0  0  0  0  0  0
   20.4312  -13.4659   19.6992 H   0  0  0  0  0  0  0  0  0  0  0  0
   20.1758  -12.7095   21.2800 H   0  0  0  0  0  0  0  0  0  0  0  0
   18.5562  -12.3053   19.8856 C   0  0  0  0  0  0  0  0  0  0  0  0
   18.3154  -12.6316   18.8597 H   0  0  0  0  0  0  0  0  0  0  0  0
   18.8595  -11.2527   19.8166 H   0  0  0  0  0  0  0  0  0  0  0  0
   17.3730  -12.5288   20.8447 C   0  0  1  0  0  0  0  0  0  0  0  0
   17.4010  -11.7627   21.6370 H   0  0  0  0  0  0  0  0  0  0  0  0
   16.0431  -12.4959   20.1216 C   0  0  0  0  0  0  0  0  0  0  0  0
   13.8579  -11.4175   19.8509 C   0  0  0  0  0  0  0  0  0  0  0  0
   13.6130  -12.2787   19.1894 H   0  0  0  0  0  0  0  0  0  0  0  0
   13.9326  -10.5376   19.1741 H   0  0  0  0  0  0  0  0  0  0  0  0
   12.7043  -11.1534   20.7821 C   0  0  0  0  0  0  0  0  0  0  0  0
   12.2838   -9.8263   20.9719 C   0  0  0  0  0  0  0  0  0  0  0  0
   12.7760   -9.0250   20.4404 H   0  0  0  0  0  0  0  0  0  0  0  0
   11.2327   -9.5326   21.8484 C   0  0  0  0  0  0  0  0  0  0  0  0
   10.9160   -8.5095   21.9885 H   0  0  0  0  0  0  0  0  0  0  0  0
   10.5921  -10.5658   22.5431 C   0  0  0  0  0  0  0  0  0  0  0  0
    9.7801  -10.3409   23.2187 H   0  0  0  0  0  0  0  0  0  0  0  0
   11.0058  -11.8916   22.3629 C   0  0  0  0  0  0  0  0  0  0  0  0
   10.5131  -12.6878   22.9007 H   0  0  0  0  0  0  0  0  0  0  0  0
   12.0608  -12.1886   21.4896 C   0  0  0  0  0  0  0  0  0  0  0  0
   12.5579  -13.8460   21.2958 Cl  0  0  0  0  0  0  0  0  0  0  0  0
   19.0194  -15.2845   24.4177 C   0  0  0  0  0  0  0  0  0  0  0  0
   20.0750  -16.2033   24.2721 C   0  0  0  0  0  0  0  0  0  0  0  0
   19.8664  -17.2496   24.1052 H   0  0  0  0  0  0  0  0  0  0  0  0
   21.4064  -15.7690   24.3286 C   0  0  0  0  0  0  0  0  0  0  0  0
   22.2118  -16.4773   24.2013 H   0  0  0  0  0  0  0  0  0  0  0  0
   21.6936  -14.4189   24.5655 C   0  0  0  0  0  0  0  0  0  0  0  0
   22.7195  -14.0855   24.6190 H   0  0  0  0  0  0  0  0  0  0  0  0
   20.6495  -13.5029   24.7420 C   0  0  0  0  0  0  0  0  0  0  0  0
   20.8699  -12.4626   24.9316 H   0  0  0  0  0  0  0  0  0  0  0  0
   19.3195  -13.9326   24.6606 C   0  0  0  0  0  0  0  0  0  0  0  0
   18.5214  -13.2157   24.7874 H   0  0  0  0  0  0  0  0  0  0  0  0
  1  2  1  0
  1  3  1  0
  1  9  1  0
  1 42  1  0
  4  5  1  0
  4  6  1  0
  4  7  1  0
  4  9  1  0
  8 13  2  0
  9 10  1  6
  9 13  1  0
 11 13  1  0
 11 16  1  0
 11 25  1  0
 12 27  2  0
 14 15  1  0
 14 27  1  0
 14 28  1  0
 16 17  1  0
 16 18  1  0
 16 19  1  0
 19 20  1  0
 19 21  1  0
 19 22  1  0
 22 23  1  0
 22 24  1  0
 22 25  1  0
 25 26  1  1
 25 27  1  0
 28 29  1  0
 28 30  1  0
 28 31  1  0
 31 32  2  0
 31 40  1  0
 32 33  1  0
 32 34  1  0
 34 35  1  0
 34 36  2  0
 36 37  1  0
 36 38  1  0
 38 39  1  0
 38 40  2  0
 40 41  1  0
 42 43  2  0
 42 51  1  0
 43 44  1  0
 43 45  1  0
 45 46  1  0
 45 47  2  0
 47 48  1  0
 47 49  1  0
 49 50  1  0
 49 51  2  0
 51 52  1  0
M  CHG  1   4   1
M  END
> <intraLJ>
19.279    

> <intraEL>
4.496     

> <intraDihe>
14.354    

> <interLJ>
0.000     

> <interEJ>
0.000     

> <gridLJ>
-8.425    

> <gridEL>
0.000     

> <totalE>
29.704    

> <LGFE>
-8.425  

> <LE>
-0.312  

> <SMILES>
[NH3+][C@H](Cc1ccccc1)C(=O)N1CCC[C@H]1C(=O)NCc1ccccc1Cl

> <atom.dprop.GFE>
-0.1945 0.0000 0.0000 -1.8750 0.0000 0.0000 0.0000 -0.0990 -0.1339 0.0000 -0.1159 -0.2180 0.0000 0.2190 0.0000 -0.5345 0.0000 0.0000 -0.5435 0.0000 0.0000 -0.2751 0.0000 0.0000 -0.1951 0.0000 0.0000 -0.2348 0.0000 0.0000 -0.2432 -0.1364 0.0000 -0.1889 0.0000 -0.1824 0.0000 -0.1759 0.0000 -0.1460 -2.0890 -0.1732 -0.1556 0.0000 -0.1944 0.0000 -0.1820 0.0000 -0.2276 0.0000 -0.1306 0.0000

> <atom.prop.CLASS>
PRPC NCLA NCLA MAMN NCLA NCLA NCLA FORO PRPC NCLA GEHC FORO NCLA FORN NCLA PRPC NCLA NCLA PRPC NCLA NCLA PRPC NCLA NCLA PRPC NCLA NCLA PRPC NCLA NCLA BENC BENC NCLA BENC NCLA BENC NCLA BENC NCLA BENC CLBX BENC BENC NCLA BENC NCLA BENC NCLA BENC NCLA BENC NCLA

> <cluster_id>
1

> <rmsd_to_cluster_rep>
0.00    

> <ligRMSD>
1.19    

> <ligCOMD>
1.02    

$$$$
thrombin_baum_24_7d_r.H_508
     RDKit          3D

 60 62  0  0  1  0  0  0  0  0999 V2000
   17.8770  -15.8953   23.9419 C   0  0  0  0  0  0  0  0  0  0  0  0
   17.9775  -16.9577   24.2528 H   0  0  0  0  0  0  0  0  0  0  0  0
   17.3320  -15.3570   24.7493 H   0  0  0  0  0  0  0  0  0  0  0  0
   15.7665  -16.5093   22.7386 N   0  0  0  0  0  0  0  0  0  0  0  0
   15.9123  -17.5018   23.0113 H   0  0  0  0  0  0  0  0  0  0  0  0
   15.2600  -16.4684   21.8306 H   0  0  0  0  0  0  0  0  0  0  0  0
   15.1992  -16.0257   23.4652 H   0  0  0  0  0  0  0  0  0  0  0  0
   15.8467  -13.8398   22.8376 O   0  0  0  0  0  0  0  0  0  0  0  0
   17.0771  -15.8166   22.6051 C   0  0  1  0  0  0  0  0  0  0  0  0
   17.6221  -16.3474   21.8004 H   0  0  0  0  0  0  0  0  0  0  0  0
   17.4542  -13.7395   21.2491 N   0  0  0  0  0  0  0  0  0  0  0  0
   15.1570  -13.2855   19.9326 O   0  0  0  0  0  0  0  0  0  0  0  0
   16.7692  -14.3906   22.2382 C   0  0  0  0  0  0  0  0  0  0  0  0
   15.0718  -11.0827   20.4716 N   0  0  0  0  0  0  0  0  0  0  0  0
   15.5181  -10.2813   20.8605 H   0  0  0  0  0  0  0  0  0  0  0  0
   18.6024  -14.2685   20.5082 C   0  0  0  0  0  0  0  0  0  0  0  0
   18.2190  -14.8888   19.6831 H   0  0  0  0  0  0  0  0  0  0  0  0
   19.2685  -14.8855   21.1230 H   0  0  0  0  0  0  0  0  0  0  0  0
   19.3075  -13.0200   19.9916 C   0  0  0  0  0  0  0  0  0  0  0  0
   19.9313  -13.2035   19.1076 H   0  0  0  0  0  0  0  0  0  0  0  0
   19.9637  -12.6057   20.7743 H   0  0  0  0  0  0  0  0  0  0  0  0
   18.1378  -12.0635   19.7247 C   0  0  0  0  0  0  0  0  0  0  0  0
   17.7196  -12.2868   18.7286 H   0  0  0  0  0  0  0  0  0  0  0  0
   18.4446  -11.0098   19.7066 H   0  0  0  0  0  0  0  0  0  0  0  0
   17.1321  -12.3779   20.8472 C   0  0  1  0  0  0  0  0  0  0  0  0
   17.3086  -11.6943   21.6938 H   0  0  0  0  0  0  0  0  0  0  0  0
   15.7014  -12.2724   20.3678 C   0  0  0  0  0  0  0  0  0  0  0  0
   13.7359  -10.8855   19.9680 C   0  0  0  0  0  0  0  0  0  0  0  0
   13.4446  -11.6752   19.2367 H   0  0  0  0  0  0  0  0  0  0  0  0
   13.7201   -9.9266   19.4048 H   0  0  0  0  0  0  0  0  0  0  0  0
   12.6475  -10.8220   21.0627 C   0  0  2  0  0  0  0  0  0  0  0  0
   11.6822  -10.6437   20.5298 H   0  0  0  0  0  0  0  0  0  0  0  0
   12.8318   -9.6442   22.0421 C   0  0  0  0  0  0  0  0  0  0  0  0
   12.9100   -8.6962   21.4672 H   0  0  0  0  0  0  0  0  0  0  0  0
   13.7774   -9.7863   22.6094 H   0  0  0  0  0  0  0  0  0  0  0  0
   11.6441   -9.5591   23.0272 C   0  0  2  0  0  0  0  0  0  0  0  0
   10.7203   -9.3610   22.4316 H   0  0  0  0  0  0  0  0  0  0  0  0
   11.8401   -8.4425   23.9733 N   0  0  0  0  0  0  0  0  0  0  0  0
   11.9656   -7.5568   23.4960 H   0  0  0  0  0  0  0  0  0  0  0  0
   12.6696   -8.5702   24.5418 H   0  0  0  0  0  0  0  0  0  0  0  0
   11.4411  -10.8956   23.7784 C   0  0  0  0  0  0  0  0  0  0  0  0
   12.3145  -11.0801   24.4422 H   0  0  0  0  0  0  0  0  0  0  0  0
   10.5311  -10.8341   24.4142 H   0  0  0  0  0  0  0  0  0  0  0  0
   11.3015  -12.0765   22.8066 C   0  0  0  0  0  0  0  0  0  0  0  0
   10.3669  -11.9553   22.2154 H   0  0  0  0  0  0  0  0  0  0  0  0
   11.2271  -13.0257   23.3804 H   0  0  0  0  0  0  0  0  0  0  0  0
   12.4962  -12.1434   21.8475 C   0  0  0  0  0  0  0  0  0  0  0  0
   13.4169  -12.3247   22.4425 H   0  0  0  0  0  0  0  0  0  0  0  0
   12.3651  -12.9887   21.1386 H   0  0  0  0  0  0  0  0  0  0  0  0
   19.2832  -15.3381   23.8340 C   0  0  0  0  0  0  0  0  0  0  0  0
   20.3514  -16.1431   23.3976 C   0  0  0  0  0  0  0  0  0  0  0  0
   20.1813  -17.1761   23.1329 H   0  0  0  0  0  0  0  0  0  0  0  0
   21.6431  -15.6102   23.2892 C   0  0  0  0  0  0  0  0  0  0  0  0
   22.4558  -16.2298   22.9396 H   0  0  0  0  0  0  0  0  0  0  0  0
   21.8840  -14.2783   23.6488 C   0  0  0  0  0  0  0  0  0  0  0  0
   22.8813  -13.8701   23.5748 H   0  0  0  0  0  0  0  0  0  0  0  0
   20.8326  -13.4785   24.1126 C   0  0  0  0  0  0  0  0  0  0  0  0
   21.0187  -12.4530   24.3964 H   0  0  0  0  0  0  0  0  0  0  0  0
   19.5376  -14.0039   24.1975 C   0  0  0  0  0  0  0  0  0  0  0  0
   18.7315  -13.3752   24.5465 H   0  0  0  0  0  0  0  0  0  0  0  0
  1  2  1  0
  1  3  1  0
  1  9  1  0
  1 50  1  0
  4  5  1  0
  4  6  1  0
  4  7  1  0
  4  9  1  0
  8 13  2  0
  9 10  1  6
  9 13  1  0
 11 13  1  0
 11 16  1  0
 11 25  1  0
 12 27  2  0
 14 15  1  0
 14 27  1  0
 14 28  1  0
 16 17  1  0
 16 18  1  0
 16 19  1  0
 19 20  1  0
 19 21  1  0
 19 22  1  0
 22 23  1  0
 22 24  1  0
 22 25  1  0
 25 26  1  1
 25 27  1  0
 28 29  1  0
 28 30  1  0
 28 31  1  0
 31 32  1  6
 31 33  1  0
 31 47  1  0
 33 34  1  0
 33 35  1  0
 33 36  1  0
 36 37  1  6
 36 38  1  0
 36 41  1  0
 38 39  1  0
 38 40  1  0
 41 42  1  0
 41 43  1  0
 41 44  1  0
 44 45  1  0
 44 46  1  0
 44 47  1  0
 47 48  1  0
 47 49  1  0
 50 51  2  0
 50 59  1  0
 51 52  1  0
 51 53  1  0
 53 54  1  0
 53 55  2  0
 55 56  1  0
 55 57  1  0
 57 58  1  0
 57 59  2  0
 59 60  1  0
M  CHG  1   4   1
M  END
> <intraLJ>
9.089     

> <intraEL>
1.608     

> <intraDihe>
16.869    

> <interLJ>
0.000     

> <interEJ>
0.000     

> <gridLJ>
-9.168    

> <gridEL>
0.000     

> <totalE>
18.398    

> <LGFE>
-9.168  

> <LE>
-0.340  

> <SMILES>
N[C@@H]1CCC[C@H](CNC(=O)[C@@H]2CCCN2C(=O)[C@H]([NH3+])Cc2ccccc2)C1

> <atom.dprop.GFE>
-0.2907 0.0000 0.0000 -1.6990 0.0000 0.0000 0.0000 -0.0990 -0.0153 0.0000 -0.1159 -0.4200 0.0000 0.2780 0.0000 -0.4642 0.0000 0.0000 -0.5435 0.0000 0.0000 -0.2164 0.0000 0.0000 -0.0250 0.0000 0.0000 -0.2348 0.0000 0.0000 -0.5961 0.0000 -0.5018 0.0000 0.0000 -0.5451 0.0000 -1.7590 0.0000 0.0000 -0.1785 0.0000 0.0000 -0.2531 0.0000 0.0000 -0.4562 0.0000 0.0000 -0.1829 -0.1914 0.0000 -0.2052 0.0000 -0.0949 0.0000 -0.2276 0.0000 -0.1306 0.0000

> <atom.prop.CLASS>
PRPC NCLA NCLA MAMN NCLA NCLA NCLA FORO PRPC NCLA GEHC FORO NCLA FORN NCLA PRPC NCLA NCLA PRPC NCLA NCLA PRPC NCLA NCLA PRPC NCLA NCLA PRPC NCLA NCLA PRPC NCLA PRPC NCLA NCLA PRPC NCLA FORN NCLA NCLA PRPC NCLA NCLA PRPC NCLA NCLA PRPC NCLA NCLA BENC BENC NCLA BENC NCLA BENC NCLA BENC NCLA BENC NCLA

> <cluster_id>
1

> <rmsd_to_cluster_rep>
0.00    

> <ligRMSD>
1.13    

> <ligCOMD>
0.97    

$$$$
thrombin_baum_25_7e.H_919
     RDKit          3D

 56 58  0  0  1  0  0  0  0  0999 V2000
   18.1581  -12.7461   20.7785 C   0  0  1  0  0  0  0  0  0  0  0  0
   18.1962  -11.9050   21.4896 H   0  0  0  0  0  0  0  0  0  0  0  0
   18.2993  -14.0036   21.4945 N   0  0  0  0  0  0  0  0  0  0  0  0
   19.3740  -12.6905   19.8401 C   0  0  0  0  0  0  0  0  0  0  0  0
   19.7165  -11.6671   19.6392 H   0  0  0  0  0  0  0  0  0  0  0  0
   19.1591  -13.1490   18.8593 H   0  0  0  0  0  0  0  0  0  0  0  0
   20.4230  -13.5435   20.5571 C   0  0  0  0  0  0  0  0  0  0  0  0
   20.9176  -12.9520   21.3448 H   0  0  0  0  0  0  0  0  0  0  0  0
   21.2096  -13.9197   19.8906 H   0  0  0  0  0  0  0  0  0  0  0  0
   19.5777  -14.6499   21.1837 C   0  0  0  0  0  0  0  0  0  0  0  0
   19.3829  -15.4637   20.4684 H   0  0  0  0  0  0  0  0  0  0  0  0
   20.0668  -15.0784   22.0631 H   0  0  0  0  0  0  0  0  0  0  0  0
   17.4887  -15.8130   23.0282 C   0  0  1  0  0  0  0  0  0  0  0  0
   18.2149  -16.4424   22.4755 H   0  0  0  0  0  0  0  0  0  0  0  0
   19.3214  -15.3012   24.7143 C   0  0  0  0  0  0  0  0  0  0  0  0
   16.8810  -12.7366   19.9942 C   0  0  0  0  0  0  0  0  0  0  0  0
   20.3524  -16.2570   24.7119 C   0  0  0  0  0  0  0  0  0  0  0  0
   20.1186  -17.3058   24.6031 H   0  0  0  0  0  0  0  0  0  0  0  0
   21.6896  -15.8537   24.8166 C   0  0  0  0  0  0  0  0  0  0  0  0
   22.4789  -16.5907   24.7996 H   0  0  0  0  0  0  0  0  0  0  0  0
   22.0029  -14.4956   24.9552 C   0  0  0  0  0  0  0  0  0  0  0  0
   23.0336  -14.1857   25.0461 H   0  0  0  0  0  0  0  0  0  0  0  0
   20.9798  -13.5393   24.9765 C   0  0  0  0  0  0  0  0  0  0  0  0
   21.2218  -12.4921   25.0833 H   0  0  0  0  0  0  0  0  0  0  0  0
   19.6439  -13.9394   24.8489 C   0  0  0  0  0  0  0  0  0  0  0  0
   18.8611  -13.1952   24.8502 H   0  0  0  0  0  0  0  0  0  0  0  0
   16.1712  -16.4921   22.8734 N   0  0  0  0  0  0  0  0  0  0  0  0
   15.4403  -15.9383   23.3653 H   0  0  0  0  0  0  0  0  0  0  0  0
   16.2163  -17.4488   23.2782 H   0  0  0  0  0  0  0  0  0  0  0  0
   15.9297  -16.5540   21.8633 H   0  0  0  0  0  0  0  0  0  0  0  0
   17.3950  -14.4274   22.4368 C   0  0  0  0  0  0  0  0  0  0  0  0
   16.4366  -13.8115   19.5968 O   0  0  0  0  0  0  0  0  0  0  0  0
   16.2675  -11.5592   19.7871 N   0  0  0  0  0  0  0  0  0  0  0  0
   16.6248  -10.7012   20.1467 H   0  0  0  0  0  0  0  0  0  0  0  0
   15.0017  -11.4965   19.1123 C   0  0  0  0  0  0  0  0  0  0  0  0
   14.9266  -12.2149   18.2629 H   0  0  0  0  0  0  0  0  0  0  0  0
   14.8905  -10.4807   18.6714 H   0  0  0  0  0  0  0  0  0  0  0  0
   13.8480  -11.7502   20.0281 C   0  0  0  0  0  0  0  0  0  0  0  0
   13.2724  -13.0291   20.1227 C   0  0  0  0  0  0  0  0  0  0  0  0
   13.6416  -13.8344   19.5051 H   0  0  0  0  0  0  0  0  0  0  0  0
   12.2243  -13.2620   21.0216 C   0  0  0  0  0  0  0  0  0  0  0  0
   11.7789  -14.2435   21.0909 H   0  0  0  0  0  0  0  0  0  0  0  0
   11.7485  -12.2185   21.8249 C   0  0  0  0  0  0  0  0  0  0  0  0
   10.9276  -12.3959   22.5038 H   0  0  0  0  0  0  0  0  0  0  0  0
   12.3277  -10.9413   21.7406 C   0  0  0  0  0  0  0  0  0  0  0  0
   11.7726   -9.7899   22.5214 C   0  0  0  0  0  0  0  0  0  0  0  0
   12.2748   -9.8267   23.8515 O   0  0  0  0  0  0  0  0  0  0  0  0
   13.1915   -9.5450   23.7997 H   0  0  0  0  0  0  0  0  0  0  0  0
   10.6639   -9.8780   22.5409 H   0  0  0  0  0  0  0  0  0  0  0  0
   12.0524   -8.8281   22.0374 H   0  0  0  0  0  0  0  0  0  0  0  0
   13.3844  -10.7183   20.8481 C   0  0  0  0  0  0  0  0  0  0  0  0
   13.8249   -9.7341   20.7788 H   0  0  0  0  0  0  0  0  0  0  0  0
   16.4694  -13.7058   22.8116 O   0  0  0  0  0  0  0  0  0  0  0  0
   17.8845  -15.7352   24.5327 C   0  0  0  0  0  0  0  0  0  0  0  0
   17.7850  -16.7386   25.0012 H   0  0  0  0  0  0  0  0  0  0  0  0
   17.2173  -15.0361   25.0837 H   0  0  0  0  0  0  0  0  0  0  0  0
  1  2  1  1
  1  3  1  0
  1  4  1  0
  1 16  1  0
  3 10  1  0
  3 31  1  0
  4  5  1  0
  4  6  1  0
  4  7  1  0
  7  8  1  0
  7  9  1  0
  7 10  1  0
 10 11  1  0
 10 12  1  0
 13 14  1  6
 13 27  1  0
 13 31  1  0
 13 54  1  0
 15 17  2  0
 15 25  1  0
 15 54  1  0
 16 32  2  0
 16 33  1  0
 17 18  1  0
 17 19  1  0
 19 20  1  0
 19 21  2  0
 21 22  1  0
 21 23  1  0
 23 24  1  0
 23 25  2  0
 25 26  1  0
 27 28  1  0
 27 29  1  0
 27 30  1  0
 31 53  2  0
 33 34  1  0
 33 35  1  0
 35 36  1  0
 35 37  1  0
 35 38  1  0
 38 39  2  0
 38 51  1  0
 39 40  1  0
 39 41  1  0
 41 42  1  0
 41 43  2  0
 43 44  1  0
 43 45  1  0
 45 46  1  0
 45 51  2  0
 46 47  1  0
 46 49  1  0
 46 50  1  0
 47 48  1  0
 51 52  1  0
 54 55  1  0
 54 56  1  0
M  CHG  1  27   1
M  END
> <intraLJ>
20.625    

> <intraEL>
5.527     

> <intraDihe>
18.218    

> <interLJ>
0.000     

> <interEJ>
0.000     

> <gridLJ>
-8.366    

> <gridEL>
0.000     

> <totalE>
36.005    

> <LGFE>
-8.366  

> <LE>
-0.299  

> <SMILES>
[NH3+][C@H](Cc1ccccc1)C(=O)N1CCC[C@H]1C(=O)NCc1cccc(CO)c1

> <atom.dprop.GFE>
-0.4692 0.0000 -0.1688 -0.6357 0.0000 0.0000 -0.5788 0.0000 0.0000 -0.5062 0.0000 0.0000 -0.1339 0.0000 -0.1732 0.0000 -0.1556 0.0000 -0.1944 0.0000 -0.1566 0.0000 -0.1905 0.0000 -0.1306 0.0000 -1.5070 0.0000 0.0000 0.0000 0.0000 0.0930 -0.6140 0.0000 0.0529 0.0000 0.0000 -0.1399 -0.1288 0.0000 -0.1867 0.0000 -0.2320 0.0000 -0.1668 -0.6387 -1.6180 0.0000 0.0000 0.0000 -0.0945 0.0000 0.5990 -0.2907 0.0000 0.0000

> <atom.prop.CLASS>
PRPC NCLA GEHC PRPC NCLA NCLA PRPC NCLA NCLA PRPC NCLA NCLA PRPC NCLA BENC NCLA BENC NCLA BENC NCLA BENC NCLA BENC NCLA BENC NCLA MAMN NCLA NCLA NCLA NCLA FORO FORN NCLA PRPC NCLA NCLA BENC BENC NCLA BENC NCLA BENC NCLA BENC PRPC MEOO NCLA NCLA NCLA BENC NCLA FORO PRPC NCLA NCLA

> <cluster_id>
1

> <rmsd_to_cluster_rep>
0.00    

> <ligRMSD>
1.24    

> <ligCOMD>
0.94    

$$$$
thrombin_baum_26_7f.H_162
     RDKit          3D

 56 58  0  0  1  0  0  0  0  0999 V2000
   18.1605  -12.9832   20.4810 C   0  0  1  0  0  0  0  0  0  0  0  0
   18.2525  -12.0777   21.1024 H   0  0  0  0  0  0  0  0  0  0  0  0
   18.4469  -14.1618   21.2827 N   0  0  0  0  0  0  0  0  0  0  0  0
   19.2437  -12.9782   19.3904 C   0  0  0  0  0  0  0  0  0  0  0  0
   19.5129  -11.9682   19.0554 H   0  0  0  0  0  0  0  0  0  0  0  0
   18.9257  -13.5341   18.4914 H   0  0  0  0  0  0  0  0  0  0  0  0
   20.4119  -13.7258   20.0376 C   0  0  0  0  0  0  0  0  0  0  0  0
   20.9767  -13.0470   20.6972 H   0  0  0  0  0  0  0  0  0  0  0  0
   21.1226  -14.1386   19.3103 H   0  0  0  0  0  0  0  0  0  0  0  0
   19.7024  -14.7939   20.8666 C   0  0  0  0  0  0  0  0  0  0  0  0
   19.4538  -15.6778   20.2593 H   0  0  0  0  0  0  0  0  0  0  0  0
   20.3178  -15.1213   21.7094 H   0  0  0  0  0  0  0  0  0  0  0  0
   17.9055  -15.8503   23.0546 C   0  0  1  0  0  0  0  0  0  0  0  0
   18.5762  -16.5073   22.4651 H   0  0  0  0  0  0  0  0  0  0  0  0
   19.9458  -15.2401   24.4435 C   0  0  0  0  0  0  0  0  0  0  0  0
   16.7939  -13.0881   19.8734 C   0  0  0  0  0  0  0  0  0  0  0  0
   20.9417  -16.2269   24.3400 C   0  0  0  0  0  0  0  0  0  0  0  0
   20.6685  -17.2715   24.3118 H   0  0  0  0  0  0  0  0  0  0  0  0
   22.2900  -15.8617   24.2389 C   0  0  0  0  0  0  0  0  0  0  0  0
   23.0503  -16.6231   24.1449 H   0  0  0  0  0  0  0  0  0  0  0  0
   22.6540  -14.5096   24.2716 C   0  0  0  0  0  0  0  0  0  0  0  0
   23.6947  -14.2287   24.2038 H   0  0  0  0  0  0  0  0  0  0  0  0
   21.6685  -13.5217   24.3928 C   0  0  0  0  0  0  0  0  0  0  0  0
   21.9495  -12.4791   24.4179 H   0  0  0  0  0  0  0  0  0  0  0  0
   20.3182  -13.8848   24.4710 C   0  0  0  0  0  0  0  0  0  0  0  0
   19.5624  -13.1170   24.5482 H   0  0  0  0  0  0  0  0  0  0  0  0
   16.6026  -16.5704   23.1280 N   0  0  0  0  0  0  0  0  0  0  0  0
   15.9222  -15.9937   23.6641 H   0  0  0  0  0  0  0  0  0  0  0  0
   16.7313  -17.4879   23.6002 H   0  0  0  0  0  0  0  0  0  0  0  0
   16.2364  -16.7235   22.1664 H   0  0  0  0  0  0  0  0  0  0  0  0
   17.6899  -14.5225   22.3700 C   0  0  0  0  0  0  0  0  0  0  0  0
   16.2511  -14.1907   19.8547 O   0  0  0  0  0  0  0  0  0  0  0  0
   16.2159  -11.9684   19.4049 N   0  0  0  0  0  0  0  0  0  0  0  0
   16.6592  -11.0777   19.4602 H   0  0  0  0  0  0  0  0  0  0  0  0
   14.8799  -11.9894   18.8774 C   0  0  0  0  0  0  0  0  0  0  0  0
   14.5704  -13.0013   18.5258 H   0  0  0  0  0  0  0  0  0  0  0  0
   14.8468  -11.3262   17.9844 H   0  0  0  0  0  0  0  0  0  0  0  0
   13.8574  -11.5163   19.8596 C   0  0  0  0  0  0  0  0  0  0  0  0
   13.2938  -12.4135   20.7827 C   0  0  0  0  0  0  0  0  0  0  0  0
   13.5738  -13.4564   20.7644 H   0  0  0  0  0  0  0  0  0  0  0  0
   12.3775  -11.9534   21.7331 C   0  0  0  0  0  0  0  0  0  0  0  0
   11.9541  -12.6398   22.4515 H   0  0  0  0  0  0  0  0  0  0  0  0
   12.0257  -10.5924   21.7730 C   0  0  0  0  0  0  0  0  0  0  0  0
   11.1155  -10.0818   22.8481 C   0  0  0  0  0  0  0  0  0  0  0  0
   10.3592  -10.8661   23.0712 H   0  0  0  0  0  0  0  0  0  0  0  0
   10.5926   -9.1614   22.5051 H   0  0  0  0  0  0  0  0  0  0  0  0
   11.8678   -9.7998   24.0211 O   0  0  0  0  0  0  0  0  0  0  0  0
   12.3453   -8.9857   23.8436 H   0  0  0  0  0  0  0  0  0  0  0  0
   12.5990   -9.6991   20.8544 C   0  0  0  0  0  0  0  0  0  0  0  0
   12.3465   -8.6494   20.8891 H   0  0  0  0  0  0  0  0  0  0  0  0
   13.5132  -10.1591   19.9049 C   0  0  0  0  0  0  0  0  0  0  0  0
   13.9587   -9.4636   19.2087 H   0  0  0  0  0  0  0  0  0  0  0  0
   16.7998  -13.7909   22.8060 O   0  0  0  0  0  0  0  0  0  0  0  0
   18.4871  -15.6361   24.4836 C   0  0  0  0  0  0  0  0  0  0  0  0
   18.4216  -16.5826   25.0633 H   0  0  0  0  0  0  0  0  0  0  0  0
   17.9111  -14.8604   25.0351 H   0  0  0  0  0  0  0  0  0  0  0  0
  1  2  1  1
  1  3  1  0
  1  4  1  0
  1 16  1  0
  3 10  1  0
  3 31  1  0
  4  5  1  0
  4  6  1  0
  4  7  1  0
  7  8  1  0
  7  9  1  0
  7 10  1  0
 10 11  1  0
 10 12  1  0
 13 14  1  6
 13 27  1  0
 13 31  1  0
 13 54  1  0
 15 17  2  0
 15 25  1  0
 15 54  1  0
 16 32  2  0
 16 33  1  0
 17 18  1  0
 17 19  1  0
 19 20  1  0
 19 21  2  0
 21 22  1  0
 21 23  1  0
 23 24  1  0
 23 25  2  0
 25 26  1  0
 27 28  1  0
 27 29  1  0
 27 30  1  0
 31 53  2  0
 33 34  1  0
 33 35  1  0
 35 36  1  0
 35 37  1  0
 35 38  1  0
 38 39  2  0
 38 51  1  0
 39 40  1  0
 39 41  1  0
 41 42  1  0
 41 43  2  0
 43 44  1  0
 43 49  1  0
 44 45  1  0
 44 46  1  0
 44 47  1  0
 47 48  1  0
 49 50  1  0
 49 51  2  0
 51 52  1  0
 54 55  1  0
 54 56  1  0
M  CHG  1  27   1
M  END
> <intraLJ>
21.472    

> <intraEL>
5.540     

> <intraDihe>
17.539    

> <interLJ>
0.000     

> <interEJ>
0.000     

> <gridLJ>
-8.479    

> <gridEL>
0.000     

> <totalE>
36.072    

> <LGFE>
-8.479  

> <LE>
-0.303  

> <SMILES>
[NH3+][C@H](Cc1ccccc1)C(=O)N1CCC[C@H]1C(=O)NCc1ccc(CO)cc1

> <atom.dprop.GFE>
-0.4692 0.0000 -0.1688 -0.6357 0.0000 0.0000 -0.5788 0.0000 0.0000 -0.5062 0.0000 0.0000 -0.2661 0.0000 -0.1824 0.0000 -0.1944 0.0000 -0.1700 0.0000 -0.1822 0.0000 -0.1820 0.0000 -0.2276 0.0000 -1.5070 0.0000 0.0000 0.0000 0.0000 0.0490 -0.6140 0.0000 0.0529 0.0000 0.0000 -0.1399 -0.1399 0.0000 -0.1460 0.0000 -0.1668 -0.6387 0.0000 0.0000 -1.6180 0.0000 -0.1364 0.0000 -0.0189 0.0000 0.5990 -0.2907 0.0000 0.0000

> <atom.prop.CLASS>
PRPC NCLA GEHC PRPC NCLA NCLA PRPC NCLA NCLA PRPC NCLA NCLA PRPC NCLA BENC NCLA BENC NCLA BENC NCLA BENC NCLA BENC NCLA BENC NCLA MAMN NCLA NCLA NCLA NCLA FORO FORN NCLA PRPC NCLA NCLA BENC BENC NCLA BENC NCLA BENC PRPC NCLA NCLA MEOO NCLA BENC NCLA BENC NCLA FORO PRPC NCLA NCLA

> <cluster_id>
1

> <rmsd_to_cluster_rep>
0.00    

> <ligRMSD>
1.16    

> <ligCOMD>
0.93    

$$$$
