tyk2_liang_ejmc_01
  MOE2024           3D
tyk2_liang_ejmc_01
 25 26  0  0  0  0  0  0  0  0999 V2000
   30.5840   33.2210   38.9240 Cl  0  0  0  0  0  0  0  0  0  0  0  0
   33.7164   32.3612   34.5245 Cl  0  0  0  0  0  0  0  0  0  0  0  0
   34.0850   34.8600   37.6560 C   0  0  0  0  0  0  0  0  0  0  0  0
   34.7744   35.5943   37.9917 H   0  0  0  0  0  0  0  0  0  0  0  0
   30.4980   32.0140   35.3060 N   0  0  0  0  0  0  0  0  0  0  0  0
   30.5924   32.8961   34.7905 H   0  0  0  0  0  0  0  0  0  0  0  0
   31.3550   30.8420   37.0530 O   0  0  0  0  0  0  0  0  0  0  0  0
   34.3220   34.1720   36.4650 C   0  0  0  0  0  0  0  0  0  0  0  0
   35.1034   34.3541   35.9461 H   0  0  0  0  0  0  0  0  0  0  0  0
   27.9100   29.1780   33.5840 N   0  0  0  0  0  0  0  0  0  0  0  0
   33.4110   33.2050   36.0310 C   0  0  0  0  0  0  0  0  0  0  0  0
   32.2560   32.9420   36.7670 C   0  0  0  0  0  0  0  0  0  0  0  0
   32.0430   33.6060   37.9670 C   0  0  0  0  0  0  0  0  0  0  0  0
   32.9430   34.5780   38.4090 C   0  0  0  0  0  0  0  0  0  0  0  0
   32.7571   35.0900   39.3189 H   0  0  0  0  0  0  0  0  0  0  0  0
   31.3180   31.8470   36.3570 C   0  0  0  0  0  0  0  0  0  0  0  0
   29.6000   31.0560   34.7790 C   0  0  0  0  0  0  0  0  0  0  0  0
   29.0380   31.2910   33.5110 C   0  0  0  0  0  0  0  0  0  0  0  0
   29.2608   32.1906   33.0013 H   0  0  0  0  0  0  0  0  0  0  0  0
   28.1860   30.3280   32.9330 C   0  0  0  0  0  0  0  0  0  0  0  0
   27.7276   30.4484   31.9815 H   0  0  0  0  0  0  0  0  0  0  0  0
   28.4490   28.9090   34.8080 C   0  0  0  0  0  0  0  0  0  0  0  0
   28.2231   27.9766   35.3039 H   0  0  0  0  0  0  0  0  0  0  0  0
   29.2950   29.8410   35.4220 C   0  0  0  0  0  0  0  0  0  0  0  0
   29.6436   29.5762   36.3783 H   0  0  0  0  0  0  0  0  0  0  0  0
  1 13  1  0  0  0  0
  2 11  1  0  0  0  0
  3  4  1  0  0  0  0
  3  8  1  0  0  0  0
  3 14  2  0  0  0  0
  5  6  1  0  0  0  0
  5 16  1  0  0  0  0
  5 17  1  0  0  0  0
  7 16  2  0  0  0  0
  8  9  1  0  0  0  0
  8 11  2  0  0  0  0
 10 20  2  0  0  0  0
 10 22  1  0  0  0  0
 11 12  1  0  0  0  0
 12 13  2  0  0  0  0
 12 16  1  0  0  0  0
 13 14  1  0  0  0  0
 14 15  1  0  0  0  0
 17 18  2  0  0  0  0
 17 24  1  0  0  0  0
 18 19  1  0  0  0  0
 18 20  1  0  0  0  0
 20 21  1  0  0  0  0
 22 23  1  0  0  0  0
 22 24  2  0  0  0  0
 24 25  1  0  0  0  0
M  END
$$$$
tyk2_liang_ejmc_02
  MOE2024           3D
tyk2_liang_ejmc_02
 25 26  0  0  0  0  0  0  0  0999 V2000
   31.2628   33.4001   38.4788 H   0  0  0  0  0  0  0  0  0  0  0  0
   33.5774   32.7452   35.2101 H   0  0  0  0  0  0  0  0  0  0  0  0
   34.0850   34.8600   37.6560 C   0  0  0  0  0  0  0  0  0  0  0  0
   34.7744   35.5943   37.9917 H   0  0  0  0  0  0  0  0  0  0  0  0
   30.4980   32.0140   35.3060 N   0  0  0  0  0  0  0  0  0  0  0  0
   30.5924   32.8961   34.7905 H   0  0  0  0  0  0  0  0  0  0  0  0
   31.3550   30.8420   37.0530 O   0  0  0  0  0  0  0  0  0  0  0  0
   34.3220   34.1720   36.4650 C   0  0  0  0  0  0  0  0  0  0  0  0
   35.1034   34.3541   35.9461 H   0  0  0  0  0  0  0  0  0  0  0  0
   27.9100   29.1780   33.5840 N   0  0  0  0  0  0  0  0  0  0  0  0
   33.4110   33.2050   36.0310 C   0  0  0  0  0  0  0  0  0  0  0  0
   32.2560   32.9420   36.7670 C   0  0  0  0  0  0  0  0  0  0  0  0
   32.0430   33.6060   37.9670 C   0  0  0  0  0  0  0  0  0  0  0  0
   32.9430   34.5780   38.4090 C   0  0  0  0  0  0  0  0  0  0  0  0
   32.7571   35.0900   39.3189 H   0  0  0  0  0  0  0  0  0  0  0  0
   31.3180   31.8470   36.3570 C   0  0  0  0  0  0  0  0  0  0  0  0
   29.6000   31.0560   34.7790 C   0  0  0  0  0  0  0  0  0  0  0  0
   29.0380   31.2910   33.5110 C   0  0  0  0  0  0  0  0  0  0  0  0
   29.2608   32.1906   33.0013 H   0  0  0  0  0  0  0  0  0  0  0  0
   28.1860   30.3280   32.9330 C   0  0  0  0  0  0  0  0  0  0  0  0
   27.7276   30.4484   31.9815 H   0  0  0  0  0  0  0  0  0  0  0  0
   28.4490   28.9090   34.8080 C   0  0  0  0  0  0  0  0  0  0  0  0
   28.2231   27.9766   35.3039 H   0  0  0  0  0  0  0  0  0  0  0  0
   29.2950   29.8410   35.4220 C   0  0  0  0  0  0  0  0  0  0  0  0
   29.6436   29.5762   36.3783 H   0  0  0  0  0  0  0  0  0  0  0  0
  1 13  1  0  0  0  0
  2 11  1  0  0  0  0
  3  4  1  0  0  0  0
  3  8  1  0  0  0  0
  3 14  2  0  0  0  0
  5  6  1  0  0  0  0
  5 16  1  0  0  0  0
  5 17  1  0  0  0  0
  7 16  2  0  0  0  0
  8  9  1  0  0  0  0
  8 11  2  0  0  0  0
 10 20  2  0  0  0  0
 10 22  1  0  0  0  0
 11 12  1  0  0  0  0
 12 13  2  0  0  0  0
 12 16  1  0  0  0  0
 13 14  1  0  0  0  0
 14 15  1  0  0  0  0
 17 18  2  0  0  0  0
 17 24  1  0  0  0  0
 18 19  1  0  0  0  0
 18 20  1  0  0  0  0
 20 21  1  0  0  0  0
 22 23  1  0  0  0  0
 22 24  2  0  0  0  0
 24 25  1  0  0  0  0
M  END
$$$$
tyk2_liang_ejmc_03
  MOE2024           3D
tyk2_liang_ejmc_03
 25 26  0  0  0  0  0  0  0  0999 V2000
   30.6112   33.2282   38.9061 Cl  0  0  0  0  0  0  0  0  0  0  0  0
   33.5774   32.7452   35.2101 H   0  0  0  0  0  0  0  0  0  0  0  0
   34.0850   34.8600   37.6560 C   0  0  0  0  0  0  0  0  0  0  0  0
   34.7744   35.5943   37.9917 H   0  0  0  0  0  0  0  0  0  0  0  0
   30.4980   32.0140   35.3060 N   0  0  0  0  0  0  0  0  0  0  0  0
   30.5924   32.8961   34.7905 H   0  0  0  0  0  0  0  0  0  0  0  0
   31.3550   30.8420   37.0530 O   0  0  0  0  0  0  0  0  0  0  0  0
   34.3220   34.1720   36.4650 C   0  0  0  0  0  0  0  0  0  0  0  0
   35.1034   34.3541   35.9461 H   0  0  0  0  0  0  0  0  0  0  0  0
   27.9100   29.1780   33.5840 N   0  0  0  0  0  0  0  0  0  0  0  0
   33.4110   33.2050   36.0310 C   0  0  0  0  0  0  0  0  0  0  0  0
   32.2560   32.9420   36.7670 C   0  0  0  0  0  0  0  0  0  0  0  0
   32.0430   33.6060   37.9670 C   0  0  0  0  0  0  0  0  0  0  0  0
   32.9430   34.5780   38.4090 C   0  0  0  0  0  0  0  0  0  0  0  0
   32.7755   35.0393   39.2288 H   0  0  0  0  0  0  0  0  0  0  0  0
   31.3180   31.8470   36.3570 C   0  0  0  0  0  0  0  0  0  0  0  0
   29.6000   31.0560   34.7790 C   0  0  0  0  0  0  0  0  0  0  0  0
   29.0380   31.2910   33.5110 C   0  0  0  0  0  0  0  0  0  0  0  0
   29.2608   32.1906   33.0013 H   0  0  0  0  0  0  0  0  0  0  0  0
   28.1860   30.3280   32.9330 C   0  0  0  0  0  0  0  0  0  0  0  0
   27.7276   30.4484   31.9815 H   0  0  0  0  0  0  0  0  0  0  0  0
   28.4490   28.9090   34.8080 C   0  0  0  0  0  0  0  0  0  0  0  0
   28.2231   27.9766   35.3039 H   0  0  0  0  0  0  0  0  0  0  0  0
   29.2950   29.8410   35.4220 C   0  0  0  0  0  0  0  0  0  0  0  0
   29.6436   29.5762   36.3783 H   0  0  0  0  0  0  0  0  0  0  0  0
  1 13  1  0  0  0  0
  2 11  1  0  0  0  0
  3  4  1  0  0  0  0
  3  8  1  0  0  0  0
  3 14  2  0  0  0  0
  5  6  1  0  0  0  0
  5 16  1  0  0  0  0
  5 17  1  0  0  0  0
  7 16  2  0  0  0  0
  8  9  1  0  0  0  0
  8 11  2  0  0  0  0
 10 20  2  0  0  0  0
 10 22  1  0  0  0  0
 11 12  1  0  0  0  0
 12 13  2  0  0  0  0
 12 16  1  0  0  0  0
 13 14  1  0  0  0  0
 14 15  1  0  0  0  0
 17 18  2  0  0  0  0
 17 24  1  0  0  0  0
 18 19  1  0  0  0  0
 18 20  1  0  0  0  0
 20 21  1  0  0  0  0
 22 23  1  0  0  0  0
 22 24  2  0  0  0  0
 24 25  1  0  0  0  0
M  END
$$$$
tyk2_liang_ejmc_04
  MOE2024           3D
tyk2_liang_ejmc_04
 28 29  0  0  0  0  0  0  0  0999 V2000
   30.8260   33.3034   38.8291 C   0  0  0  0  0  0  0  0  0  0  0  0
   29.9312   33.3401   38.2072 H   0  0  0  0  0  0  0  0  0  0  0  0
   30.7463   34.0410   39.6277 H   0  0  0  0  0  0  0  0  0  0  0  0
   30.9515   32.3079   39.2578 H   0  0  0  0  0  0  0  0  0  0  0  0
   33.5774   32.7452   35.2101 H   0  0  0  0  0  0  0  0  0  0  0  0
   34.0850   34.8600   37.6560 C   0  0  0  0  0  0  0  0  0  0  0  0
   34.7744   35.5943   37.9917 H   0  0  0  0  0  0  0  0  0  0  0  0
   30.4980   32.0140   35.3060 N   0  0  0  0  0  0  0  0  0  0  0  0
   30.5924   32.8961   34.7905 H   0  0  0  0  0  0  0  0  0  0  0  0
   31.3550   30.8420   37.0530 O   0  0  0  0  0  0  0  0  0  0  0  0
   34.3220   34.1720   36.4650 C   0  0  0  0  0  0  0  0  0  0  0  0
   35.1034   34.3541   35.9461 H   0  0  0  0  0  0  0  0  0  0  0  0
   27.9100   29.1780   33.5840 N   0  0  0  0  0  0  0  0  0  0  0  0
   33.4110   33.2050   36.0310 C   0  0  0  0  0  0  0  0  0  0  0  0
   32.2560   32.9420   36.7670 C   0  0  0  0  0  0  0  0  0  0  0  0
   32.0430   33.6060   37.9670 C   0  0  0  0  0  0  0  0  0  0  0  0
   32.9430   34.5780   38.4090 C   0  0  0  0  0  0  0  0  0  0  0  0
   32.7755   35.0393   39.2288 H   0  0  0  0  0  0  0  0  0  0  0  0
   31.3180   31.8470   36.3570 C   0  0  0  0  0  0  0  0  0  0  0  0
   29.6000   31.0560   34.7790 C   0  0  0  0  0  0  0  0  0  0  0  0
   29.0380   31.2910   33.5110 C   0  0  0  0  0  0  0  0  0  0  0  0
   29.2608   32.1906   33.0013 H   0  0  0  0  0  0  0  0  0  0  0  0
   28.1860   30.3280   32.9330 C   0  0  0  0  0  0  0  0  0  0  0  0
   27.7276   30.4484   31.9815 H   0  0  0  0  0  0  0  0  0  0  0  0
   28.4490   28.9090   34.8080 C   0  0  0  0  0  0  0  0  0  0  0  0
   28.2231   27.9766   35.3039 H   0  0  0  0  0  0  0  0  0  0  0  0
   29.2950   29.8410   35.4220 C   0  0  0  0  0  0  0  0  0  0  0  0
   29.6436   29.5762   36.3783 H   0  0  0  0  0  0  0  0  0  0  0  0
  1  2  1  0  0  0  0
  1  3  1  0  0  0  0
  1  4  1  0  0  0  0
  1 16  1  0  0  0  0
  5 14  1  0  0  0  0
  6  7  1  0  0  0  0
  6 11  1  0  0  0  0
  6 17  2  0  0  0  0
  8  9  1  0  0  0  0
  8 19  1  0  0  0  0
  8 20  1  0  0  0  0
 10 19  2  0  0  0  0
 11 12  1  0  0  0  0
 11 14  2  0  0  0  0
 13 23  2  0  0  0  0
 13 25  1  0  0  0  0
 14 15  1  0  0  0  0
 15 16  2  0  0  0  0
 15 19  1  0  0  0  0
 16 17  1  0  0  0  0
 17 18  1  0  0  0  0
 20 21  2  0  0  0  0
 20 27  1  0  0  0  0
 21 22  1  0  0  0  0
 21 23  1  0  0  0  0
 23 24  1  0  0  0  0
 25 26  1  0  0  0  0
 25 27  2  0  0  0  0
 27 28  1  0  0  0  0
M  END
$$$$
tyk2_liang_ejmc_05
  MOE2024           3D
tyk2_liang_ejmc_05
 28 29  0  0  0  0  0  0  0  0999 V2000
   30.7948   33.3152   38.8378 C   0  0  0  0  0  0  0  0  0  0  0  0
   29.6842   33.2622   38.0812 F   0  0  0  0  0  0  0  0  0  0  0  0
   30.6075   34.3028   39.7378 F   0  0  0  0  0  0  0  0  0  0  0  0
   30.9476   32.1728   39.5148 F   0  0  0  0  0  0  0  0  0  0  0  0
   33.5774   32.7452   35.2101 H   0  0  0  0  0  0  0  0  0  0  0  0
   34.0850   34.8600   37.6560 C   0  0  0  0  0  0  0  0  0  0  0  0
   34.7744   35.5943   37.9917 H   0  0  0  0  0  0  0  0  0  0  0  0
   30.4980   32.0140   35.3060 N   0  0  0  0  0  0  0  0  0  0  0  0
   30.5924   32.8961   34.7905 H   0  0  0  0  0  0  0  0  0  0  0  0
   31.3550   30.8420   37.0530 O   0  0  0  0  0  0  0  0  0  0  0  0
   34.3220   34.1720   36.4650 C   0  0  0  0  0  0  0  0  0  0  0  0
   35.1034   34.3541   35.9461 H   0  0  0  0  0  0  0  0  0  0  0  0
   27.9100   29.1780   33.5840 N   0  0  0  0  0  0  0  0  0  0  0  0
   33.4110   33.2050   36.0310 C   0  0  0  0  0  0  0  0  0  0  0  0
   32.2560   32.9420   36.7670 C   0  0  0  0  0  0  0  0  0  0  0  0
   32.0430   33.6060   37.9670 C   0  0  0  0  0  0  0  0  0  0  0  0
   32.9430   34.5780   38.4090 C   0  0  0  0  0  0  0  0  0  0  0  0
   32.7755   35.0393   39.2288 H   0  0  0  0  0  0  0  0  0  0  0  0
   31.3180   31.8470   36.3570 C   0  0  0  0  0  0  0  0  0  0  0  0
   29.6000   31.0560   34.7790 C   0  0  0  0  0  0  0  0  0  0  0  0
   29.0380   31.2910   33.5110 C   0  0  0  0  0  0  0  0  0  0  0  0
   29.2608   32.1906   33.0013 H   0  0  0  0  0  0  0  0  0  0  0  0
   28.1860   30.3280   32.9330 C   0  0  0  0  0  0  0  0  0  0  0  0
   27.7276   30.4484   31.9815 H   0  0  0  0  0  0  0  0  0  0  0  0
   28.4490   28.9090   34.8080 C   0  0  0  0  0  0  0  0  0  0  0  0
   28.2231   27.9766   35.3039 H   0  0  0  0  0  0  0  0  0  0  0  0
   29.2950   29.8410   35.4220 C   0  0  0  0  0  0  0  0  0  0  0  0
   29.6436   29.5762   36.3783 H   0  0  0  0  0  0  0  0  0  0  0  0
  1  2  1  0  0  0  0
  1  3  1  0  0  0  0
  1  4  1  0  0  0  0
  1 16  1  0  0  0  0
  5 14  1  0  0  0  0
  6  7  1  0  0  0  0
  6 11  1  0  0  0  0
  6 17  2  0  0  0  0
  8  9  1  0  0  0  0
  8 19  1  0  0  0  0
  8 20  1  0  0  0  0
 10 19  2  0  0  0  0
 11 12  1  0  0  0  0
 11 14  2  0  0  0  0
 13 23  2  0  0  0  0
 13 25  1  0  0  0  0
 14 15  1  0  0  0  0
 15 16  2  0  0  0  0
 15 19  1  0  0  0  0
 16 17  1  0  0  0  0
 17 18  1  0  0  0  0
 20 21  2  0  0  0  0
 20 27  1  0  0  0  0
 21 22  1  0  0  0  0
 21 23  1  0  0  0  0
 23 24  1  0  0  0  0
 25 26  1  0  0  0  0
 25 27  2  0  0  0  0
 27 28  1  0  0  0  0
M  END
$$$$
tyk2_liang_ejmc_06
  MOE2024           3D
tyk2_liang_ejmc_06
 25 26  0  0  0  0  0  0  0  0999 V2000
   33.5774   32.7452   35.2101 F   0  0  0  0  0  0  0  0  0  0  0  0
   34.0850   34.8600   37.6560 C   0  0  0  0  0  0  0  0  0  0  0  0
   34.7744   35.5943   37.9917 H   0  0  0  0  0  0  0  0  0  0  0  0
   30.4980   32.0140   35.3060 N   0  0  0  0  0  0  0  0  0  0  0  0
   30.5924   32.8961   34.7905 H   0  0  0  0  0  0  0  0  0  0  0  0
   31.3550   30.8420   37.0530 O   0  0  0  0  0  0  0  0  0  0  0  0
   34.3220   34.1720   36.4650 C   0  0  0  0  0  0  0  0  0  0  0  0
   35.1034   34.3541   35.9461 H   0  0  0  0  0  0  0  0  0  0  0  0
   27.9100   29.1780   33.5840 N   0  0  0  0  0  0  0  0  0  0  0  0
   33.4110   33.2050   36.0310 C   0  0  0  0  0  0  0  0  0  0  0  0
   32.2560   32.9420   36.7670 C   0  0  0  0  0  0  0  0  0  0  0  0
   32.0430   33.6060   37.9670 C   0  0  0  0  0  0  0  0  0  0  0  0
   30.6328   33.2214   38.9356 Cl  0  0  0  0  0  0  0  0  0  0  0  0
   32.9430   34.5780   38.4090 C   0  0  0  0  0  0  0  0  0  0  0  0
   32.7755   35.0393   39.2288 H   0  0  0  0  0  0  0  0  0  0  0  0
   31.3180   31.8470   36.3570 C   0  0  0  0  0  0  0  0  0  0  0  0
   29.6000   31.0560   34.7790 C   0  0  0  0  0  0  0  0  0  0  0  0
   29.0380   31.2910   33.5110 C   0  0  0  0  0  0  0  0  0  0  0  0
   29.2608   32.1906   33.0013 H   0  0  0  0  0  0  0  0  0  0  0  0
   28.1860   30.3280   32.9330 C   0  0  0  0  0  0  0  0  0  0  0  0
   27.7276   30.4484   31.9815 H   0  0  0  0  0  0  0  0  0  0  0  0
   28.4490   28.9090   34.8080 C   0  0  0  0  0  0  0  0  0  0  0  0
   28.2231   27.9766   35.3039 H   0  0  0  0  0  0  0  0  0  0  0  0
   29.2950   29.8410   35.4220 C   0  0  0  0  0  0  0  0  0  0  0  0
   29.6436   29.5762   36.3783 H   0  0  0  0  0  0  0  0  0  0  0  0
  1 10  1  0  0  0  0
  2  3  1  0  0  0  0
  2  7  1  0  0  0  0
  2 14  2  0  0  0  0
  4  5  1  0  0  0  0
  4 16  1  0  0  0  0
  4 17  1  0  0  0  0
  6 16  2  0  0  0  0
  7  8  1  0  0  0  0
  7 10  2  0  0  0  0
  9 20  2  0  0  0  0
  9 22  1  0  0  0  0
 10 11  1  0  0  0  0
 11 12  2  0  0  0  0
 11 16  1  0  0  0  0
 12 13  1  0  0  0  0
 12 14  1  0  0  0  0
 14 15  1  0  0  0  0
 17 18  2  0  0  0  0
 17 24  1  0  0  0  0
 18 19  1  0  0  0  0
 18 20  1  0  0  0  0
 20 21  1  0  0  0  0
 22 23  1  0  0  0  0
 22 24  2  0  0  0  0
 24 25  1  0  0  0  0
M  END
$$$$
tyk2_liang_ejmc_07
  MOE2024           3D
tyk2_liang_ejmc_07
 25 26  0  0  0  0  0  0  0  0999 V2000
   33.5774   32.7452   35.2101 F   0  0  0  0  0  0  0  0  0  0  0  0
   34.0850   34.8600   37.6560 C   0  0  0  0  0  0  0  0  0  0  0  0
   34.7744   35.5943   37.9917 H   0  0  0  0  0  0  0  0  0  0  0  0
   30.4980   32.0140   35.3060 N   0  0  0  0  0  0  0  0  0  0  0  0
   30.5924   32.8961   34.7905 H   0  0  0  0  0  0  0  0  0  0  0  0
   31.3550   30.8420   37.0530 O   0  0  0  0  0  0  0  0  0  0  0  0
   34.3220   34.1720   36.4650 C   0  0  0  0  0  0  0  0  0  0  0  0
   35.1034   34.3541   35.9461 H   0  0  0  0  0  0  0  0  0  0  0  0
   27.9100   29.1780   33.5840 N   0  0  0  0  0  0  0  0  0  0  0  0
   33.4110   33.2050   36.0310 C   0  0  0  0  0  0  0  0  0  0  0  0
   32.2560   32.9420   36.7670 C   0  0  0  0  0  0  0  0  0  0  0  0
   32.0430   33.6060   37.9670 C   0  0  0  0  0  0  0  0  0  0  0  0
   30.9381   33.3554   38.7209 F   0  0  0  0  0  0  0  0  0  0  0  0
   32.9430   34.5780   38.4090 C   0  0  0  0  0  0  0  0  0  0  0  0
   32.7755   35.0393   39.2288 H   0  0  0  0  0  0  0  0  0  0  0  0
   31.3180   31.8470   36.3570 C   0  0  0  0  0  0  0  0  0  0  0  0
   29.6000   31.0560   34.7790 C   0  0  0  0  0  0  0  0  0  0  0  0
   29.0380   31.2910   33.5110 C   0  0  0  0  0  0  0  0  0  0  0  0
   29.2608   32.1906   33.0013 H   0  0  0  0  0  0  0  0  0  0  0  0
   28.1860   30.3280   32.9330 C   0  0  0  0  0  0  0  0  0  0  0  0
   27.7276   30.4484   31.9815 H   0  0  0  0  0  0  0  0  0  0  0  0
   28.4490   28.9090   34.8080 C   0  0  0  0  0  0  0  0  0  0  0  0
   28.2231   27.9766   35.3039 H   0  0  0  0  0  0  0  0  0  0  0  0
   29.2950   29.8410   35.4220 C   0  0  0  0  0  0  0  0  0  0  0  0
   29.6436   29.5762   36.3783 H   0  0  0  0  0  0  0  0  0  0  0  0
  1 10  1  0  0  0  0
  2  3  1  0  0  0  0
  2  7  1  0  0  0  0
  2 14  2  0  0  0  0
  4  5  1  0  0  0  0
  4 16  1  0  0  0  0
  4 17  1  0  0  0  0
  6 16  2  0  0  0  0
  7  8  1  0  0  0  0
  7 10  2  0  0  0  0
  9 20  2  0  0  0  0
  9 22  1  0  0  0  0
 10 11  1  0  0  0  0
 11 12  2  0  0  0  0
 11 16  1  0  0  0  0
 12 13  1  0  0  0  0
 12 14  1  0  0  0  0
 14 15  1  0  0  0  0
 17 18  2  0  0  0  0
 17 24  1  0  0  0  0
 18 19  1  0  0  0  0
 18 20  1  0  0  0  0
 20 21  1  0  0  0  0
 22 23  1  0  0  0  0
 22 24  2  0  0  0  0
 24 25  1  0  0  0  0
M  END
$$$$
tyk2_liang_ejmc_08
  MOE2024           3D
tyk2_liang_ejmc_08
 28 29  0  0  0  0  0  0  0  0999 V2000
   33.5774   32.7452   35.2101 C   0  0  0  0  0  0  0  0  0  0  0  0
   34.5263   32.9013   34.6779 H   0  0  0  0  0  0  0  0  0  0  0  0
   32.8227   33.0163   34.4655 H   0  0  0  0  0  0  0  0  0  0  0  0
   33.6020   31.6593   35.3683 H   0  0  0  0  0  0  0  0  0  0  0  0
   34.0850   34.8600   37.6560 C   0  0  0  0  0  0  0  0  0  0  0  0
   34.7744   35.5943   37.9917 H   0  0  0  0  0  0  0  0  0  0  0  0
   30.4980   32.0140   35.3060 N   0  0  0  0  0  0  0  0  0  0  0  0
   30.5924   32.8961   34.7905 H   0  0  0  0  0  0  0  0  0  0  0  0
   31.3550   30.8420   37.0530 O   0  0  0  0  0  0  0  0  0  0  0  0
   34.3220   34.1720   36.4650 C   0  0  0  0  0  0  0  0  0  0  0  0
   35.1034   34.3541   35.9461 H   0  0  0  0  0  0  0  0  0  0  0  0
   27.9100   29.1780   33.5840 N   0  0  0  0  0  0  0  0  0  0  0  0
   33.4110   33.2050   36.0310 C   0  0  0  0  0  0  0  0  0  0  0  0
   32.2560   32.9420   36.7670 C   0  0  0  0  0  0  0  0  0  0  0  0
   32.0430   33.6060   37.9670 C   0  0  0  0  0  0  0  0  0  0  0  0
   30.6273   33.3074   38.9364 Cl  0  0  0  0  0  0  0  0  0  0  0  0
   32.9430   34.5780   38.4090 C   0  0  0  0  0  0  0  0  0  0  0  0
   32.7755   35.0393   39.2288 H   0  0  0  0  0  0  0  0  0  0  0  0
   31.3180   31.8470   36.3570 C   0  0  0  0  0  0  0  0  0  0  0  0
   29.6000   31.0560   34.7790 C   0  0  0  0  0  0  0  0  0  0  0  0
   29.0380   31.2910   33.5110 C   0  0  0  0  0  0  0  0  0  0  0  0
   29.2608   32.1906   33.0013 H   0  0  0  0  0  0  0  0  0  0  0  0
   28.1860   30.3280   32.9330 C   0  0  0  0  0  0  0  0  0  0  0  0
   27.7276   30.4484   31.9815 H   0  0  0  0  0  0  0  0  0  0  0  0
   28.4490   28.9090   34.8080 C   0  0  0  0  0  0  0  0  0  0  0  0
   28.2231   27.9766   35.3039 H   0  0  0  0  0  0  0  0  0  0  0  0
   29.2950   29.8410   35.4220 C   0  0  0  0  0  0  0  0  0  0  0  0
   29.6436   29.5762   36.3783 H   0  0  0  0  0  0  0  0  0  0  0  0
  1  2  1  0  0  0  0
  1  3  1  0  0  0  0
  1  4  1  0  0  0  0
  1 13  1  0  0  0  0
  5  6  1  0  0  0  0
  5 10  1  0  0  0  0
  5 17  2  0  0  0  0
  7  8  1  0  0  0  0
  7 19  1  0  0  0  0
  7 20  1  0  0  0  0
  9 19  2  0  0  0  0
 10 11  1  0  0  0  0
 10 13  2  0  0  0  0
 12 23  2  0  0  0  0
 12 25  1  0  0  0  0
 13 14  1  0  0  0  0
 14 15  2  0  0  0  0
 14 19  1  0  0  0  0
 15 16  1  0  0  0  0
 15 17  1  0  0  0  0
 17 18  1  0  0  0  0
 20 21  2  0  0  0  0
 20 27  1  0  0  0  0
 21 22  1  0  0  0  0
 21 23  1  0  0  0  0
 23 24  1  0  0  0  0
 25 26  1  0  0  0  0
 25 27  2  0  0  0  0
 27 28  1  0  0  0  0
M  END
$$$$
tyk2_liang_ejmc_09
  MOE2024           3D
tyk2_liang_ejmc_09
 27 28  0  0  0  0  0  0  0  0999 V2000
   33.5774   32.7452   35.2101 N   0  0  0  0  0  0  0  0  0  0  0  0
   34.5445   32.8133   34.8573 H   0  0  0  0  0  0  0  0  0  0  0  0
   33.2040   31.7802   35.1490 H   0  0  0  0  0  0  0  0  0  0  0  0
   34.0850   34.8600   37.6560 C   0  0  0  0  0  0  0  0  0  0  0  0
   34.7744   35.5943   37.9917 H   0  0  0  0  0  0  0  0  0  0  0  0
   30.4980   32.0140   35.3060 N   0  0  0  0  0  0  0  0  0  0  0  0
   30.5924   32.8961   34.7905 H   0  0  0  0  0  0  0  0  0  0  0  0
   31.3550   30.8420   37.0530 O   0  0  0  0  0  0  0  0  0  0  0  0
   34.3220   34.1720   36.4650 C   0  0  0  0  0  0  0  0  0  0  0  0
   35.1034   34.3541   35.9461 H   0  0  0  0  0  0  0  0  0  0  0  0
   27.9100   29.1780   33.5840 N   0  0  0  0  0  0  0  0  0  0  0  0
   33.4110   33.2050   36.0310 C   0  0  0  0  0  0  0  0  0  0  0  0
   32.2560   32.9420   36.7670 C   0  0  0  0  0  0  0  0  0  0  0  0
   32.0430   33.6060   37.9670 C   0  0  0  0  0  0  0  0  0  0  0  0
   30.6284   33.3070   38.9377 Cl  0  0  0  0  0  0  0  0  0  0  0  0
   32.9430   34.5780   38.4090 C   0  0  0  0  0  0  0  0  0  0  0  0
   32.7755   35.0393   39.2288 H   0  0  0  0  0  0  0  0  0  0  0  0
   31.3180   31.8470   36.3570 C   0  0  0  0  0  0  0  0  0  0  0  0
   29.6000   31.0560   34.7790 C   0  0  0  0  0  0  0  0  0  0  0  0
   29.0380   31.2910   33.5110 C   0  0  0  0  0  0  0  0  0  0  0  0
   29.2608   32.1906   33.0013 H   0  0  0  0  0  0  0  0  0  0  0  0
   28.1860   30.3280   32.9330 C   0  0  0  0  0  0  0  0  0  0  0  0
   27.7276   30.4484   31.9815 H   0  0  0  0  0  0  0  0  0  0  0  0
   28.4490   28.9090   34.8080 C   0  0  0  0  0  0  0  0  0  0  0  0
   28.2231   27.9766   35.3039 H   0  0  0  0  0  0  0  0  0  0  0  0
   29.2950   29.8410   35.4220 C   0  0  0  0  0  0  0  0  0  0  0  0
   29.6436   29.5762   36.3783 H   0  0  0  0  0  0  0  0  0  0  0  0
  1  2  1  0  0  0  0
  1  3  1  0  0  0  0
  1 12  1  0  0  0  0
  4  5  1  0  0  0  0
  4  9  1  0  0  0  0
  4 16  2  0  0  0  0
  6  7  1  0  0  0  0
  6 18  1  0  0  0  0
  6 19  1  0  0  0  0
  8 18  2  0  0  0  0
  9 10  1  0  0  0  0
  9 12  2  0  0  0  0
 11 22  2  0  0  0  0
 11 24  1  0  0  0  0
 12 13  1  0  0  0  0
 13 14  2  0  0  0  0
 13 18  1  0  0  0  0
 14 15  1  0  0  0  0
 14 16  1  0  0  0  0
 16 17  1  0  0  0  0
 19 20  2  0  0  0  0
 19 26  1  0  0  0  0
 20 21  1  0  0  0  0
 20 22  1  0  0  0  0
 22 23  1  0  0  0  0
 24 25  1  0  0  0  0
 24 26  2  0  0  0  0
 26 27  1  0  0  0  0
M  END
$$$$
tyk2_liang_ejmc_10
  MOE2024           3D
tyk2_liang_ejmc_10
 28 29  0  0  0  0  0  0  0  0999 V2000
   33.5774   32.7452   35.2101 C   0  0  0  0  0  0  0  0  0  0  0  0
   34.7695   32.9262   34.4805 F   0  0  0  0  0  0  0  0  0  0  0  0
   33.6024   31.3853   35.3457 F   0  0  0  0  0  0  0  0  0  0  0  0
   32.6421   33.1280   34.2797 F   0  0  0  0  0  0  0  0  0  0  0  0
   34.0850   34.8600   37.6560 C   0  0  0  0  0  0  0  0  0  0  0  0
   34.7744   35.5943   37.9917 H   0  0  0  0  0  0  0  0  0  0  0  0
   30.4980   32.0140   35.3060 N   0  0  0  0  0  0  0  0  0  0  0  0
   30.5924   32.8961   34.7905 H   0  0  0  0  0  0  0  0  0  0  0  0
   31.3550   30.8420   37.0530 O   0  0  0  0  0  0  0  0  0  0  0  0
   34.3220   34.1720   36.4650 C   0  0  0  0  0  0  0  0  0  0  0  0
   35.1034   34.3541   35.9461 H   0  0  0  0  0  0  0  0  0  0  0  0
   27.9100   29.1780   33.5840 N   0  0  0  0  0  0  0  0  0  0  0  0
   33.4110   33.2050   36.0310 C   0  0  0  0  0  0  0  0  0  0  0  0
   32.2560   32.9420   36.7670 C   0  0  0  0  0  0  0  0  0  0  0  0
   32.0430   33.6060   37.9670 C   0  0  0  0  0  0  0  0  0  0  0  0
   30.6288   33.3077   38.9340 Cl  0  0  0  0  0  0  0  0  0  0  0  0
   32.9430   34.5780   38.4090 C   0  0  0  0  0  0  0  0  0  0  0  0
   32.7755   35.0393   39.2288 H   0  0  0  0  0  0  0  0  0  0  0  0
   31.3180   31.8470   36.3570 C   0  0  0  0  0  0  0  0  0  0  0  0
   29.6000   31.0560   34.7790 C   0  0  0  0  0  0  0  0  0  0  0  0
   29.0380   31.2910   33.5110 C   0  0  0  0  0  0  0  0  0  0  0  0
   29.2608   32.1906   33.0013 H   0  0  0  0  0  0  0  0  0  0  0  0
   28.1860   30.3280   32.9330 C   0  0  0  0  0  0  0  0  0  0  0  0
   27.7276   30.4484   31.9815 H   0  0  0  0  0  0  0  0  0  0  0  0
   28.4490   28.9090   34.8080 C   0  0  0  0  0  0  0  0  0  0  0  0
   28.2231   27.9766   35.3039 H   0  0  0  0  0  0  0  0  0  0  0  0
   29.2950   29.8410   35.4220 C   0  0  0  0  0  0  0  0  0  0  0  0
   29.6436   29.5762   36.3783 H   0  0  0  0  0  0  0  0  0  0  0  0
  1  2  1  0  0  0  0
  1  3  1  0  0  0  0
  1  4  1  0  0  0  0
  1 13  1  0  0  0  0
  5  6  1  0  0  0  0
  5 10  1  0  0  0  0
  5 17  2  0  0  0  0
  7  8  1  0  0  0  0
  7 19  1  0  0  0  0
  7 20  1  0  0  0  0
  9 19  2  0  0  0  0
 10 11  1  0  0  0  0
 10 13  2  0  0  0  0
 12 23  2  0  0  0  0
 12 25  1  0  0  0  0
 13 14  1  0  0  0  0
 14 15  2  0  0  0  0
 14 19  1  0  0  0  0
 15 16  1  0  0  0  0
 15 17  1  0  0  0  0
 17 18  1  0  0  0  0
 20 21  2  0  0  0  0
 20 27  1  0  0  0  0
 21 22  1  0  0  0  0
 21 23  1  0  0  0  0
 23 24  1  0  0  0  0
 25 26  1  0  0  0  0
 25 27  2  0  0  0  0
 27 28  1  0  0  0  0
M  END
$$$$
tyk2_liang_ejmc_11
  MOE2024           3D
tyk2_liang_ejmc_11
 25 26  0  0  0  0  0  0  0  0999 V2000
   34.0850   34.8600   37.6560 C   0  0  0  0  0  0  0  0  0  0  0  0
   34.7744   35.5943   37.9917 H   0  0  0  0  0  0  0  0  0  0  0  0
   30.4980   32.0140   35.3060 N   0  0  0  0  0  0  0  0  0  0  0  0
   30.5924   32.8961   34.7905 H   0  0  0  0  0  0  0  0  0  0  0  0
   31.3550   30.8420   37.0530 O   0  0  0  0  0  0  0  0  0  0  0  0
   34.3220   34.1720   36.4650 C   0  0  0  0  0  0  0  0  0  0  0  0
   35.1034   34.3541   35.9461 H   0  0  0  0  0  0  0  0  0  0  0  0
   27.9100   29.1780   33.5840 N   0  0  0  0  0  0  0  0  0  0  0  0
   33.4110   33.2050   36.0310 C   0  0  0  0  0  0  0  0  0  0  0  0
   33.6009   32.6623   35.1390 H   0  0  0  0  0  0  0  0  0  0  0  0
   32.2560   32.9420   36.7670 C   0  0  0  0  0  0  0  0  0  0  0  0
   32.0430   33.6060   37.9670 C   0  0  0  0  0  0  0  0  0  0  0  0
   30.6118   33.2890   38.9117 Cl  0  0  0  0  0  0  0  0  0  0  0  0
   32.9430   34.5780   38.4090 C   0  0  0  0  0  0  0  0  0  0  0  0
   32.6793   35.4532   39.8819 Cl  0  0  0  0  0  0  0  0  0  0  0  0
   31.3180   31.8470   36.3570 C   0  0  0  0  0  0  0  0  0  0  0  0
   29.6000   31.0560   34.7790 C   0  0  0  0  0  0  0  0  0  0  0  0
   29.0380   31.2910   33.5110 C   0  0  0  0  0  0  0  0  0  0  0  0
   29.2608   32.1906   33.0013 H   0  0  0  0  0  0  0  0  0  0  0  0
   28.1860   30.3280   32.9330 C   0  0  0  0  0  0  0  0  0  0  0  0
   27.7276   30.4484   31.9815 H   0  0  0  0  0  0  0  0  0  0  0  0
   28.4490   28.9090   34.8080 C   0  0  0  0  0  0  0  0  0  0  0  0
   28.2231   27.9766   35.3039 H   0  0  0  0  0  0  0  0  0  0  0  0
   29.2950   29.8410   35.4220 C   0  0  0  0  0  0  0  0  0  0  0  0
   29.6436   29.5762   36.3783 H   0  0  0  0  0  0  0  0  0  0  0  0
  1  2  1  0  0  0  0
  1  6  1  0  0  0  0
  1 14  2  0  0  0  0
  3  4  1  0  0  0  0
  3 16  1  0  0  0  0
  3 17  1  0  0  0  0
  5 16  2  0  0  0  0
  6  7  1  0  0  0  0
  6  9  2  0  0  0  0
  8 20  2  0  0  0  0
  8 22  1  0  0  0  0
  9 10  1  0  0  0  0
  9 11  1  0  0  0  0
 11 12  2  0  0  0  0
 11 16  1  0  0  0  0
 12 13  1  0  0  0  0
 12 14  1  0  0  0  0
 14 15  1  0  0  0  0
 17 18  2  0  0  0  0
 17 24  1  0  0  0  0
 18 19  1  0  0  0  0
 18 20  1  0  0  0  0
 20 21  1  0  0  0  0
 22 23  1  0  0  0  0
 22 24  2  0  0  0  0
 24 25  1  0  0  0  0
M  END
$$$$
tyk2_liang_ejmc_12
  MOE2024           3D
tyk2_liang_ejmc_12
 27 28  0  0  0  0  0  0  0  0999 V2000
   34.0850   34.8600   37.6560 C   0  0  0  0  0  0  0  0  0  0  0  0
   34.7744   35.5943   37.9917 H   0  0  0  0  0  0  0  0  0  0  0  0
   30.4980   32.0140   35.3060 N   0  0  0  0  0  0  0  0  0  0  0  0
   30.5924   32.8961   34.7905 H   0  0  0  0  0  0  0  0  0  0  0  0
   31.3550   30.8420   37.0530 O   0  0  0  0  0  0  0  0  0  0  0  0
   34.3220   34.1720   36.4650 C   0  0  0  0  0  0  0  0  0  0  0  0
   35.1034   34.3541   35.9461 H   0  0  0  0  0  0  0  0  0  0  0  0
   27.9100   29.1780   33.5840 N   0  0  0  0  0  0  0  0  0  0  0  0
   33.4110   33.2050   36.0310 C   0  0  0  0  0  0  0  0  0  0  0  0
   33.6008   32.6629   35.1392 H   0  0  0  0  0  0  0  0  0  0  0  0
   32.2560   32.9420   36.7670 C   0  0  0  0  0  0  0  0  0  0  0  0
   32.0430   33.6060   37.9670 C   0  0  0  0  0  0  0  0  0  0  0  0
   30.6226   33.2832   38.9309 Cl  0  0  0  0  0  0  0  0  0  0  0  0
   32.9430   34.5780   38.4090 C   0  0  0  0  0  0  0  0  0  0  0  0
   32.7297   35.2875   39.5986 N   0  0  0  0  0  0  0  0  0  0  0  0
   32.0493   34.8305   40.2291 H   0  0  0  0  0  0  0  0  0  0  0  0
   33.5918   35.5873   40.0767 H   0  0  0  0  0  0  0  0  0  0  0  0
   31.3180   31.8470   36.3570 C   0  0  0  0  0  0  0  0  0  0  0  0
   29.6000   31.0560   34.7790 C   0  0  0  0  0  0  0  0  0  0  0  0
   29.0380   31.2910   33.5110 C   0  0  0  0  0  0  0  0  0  0  0  0
   29.2608   32.1906   33.0013 H   0  0  0  0  0  0  0  0  0  0  0  0
   28.1860   30.3280   32.9330 C   0  0  0  0  0  0  0  0  0  0  0  0
   27.7276   30.4484   31.9815 H   0  0  0  0  0  0  0  0  0  0  0  0
   28.4490   28.9090   34.8080 C   0  0  0  0  0  0  0  0  0  0  0  0
   28.2231   27.9766   35.3039 H   0  0  0  0  0  0  0  0  0  0  0  0
   29.2950   29.8410   35.4220 C   0  0  0  0  0  0  0  0  0  0  0  0
   29.6436   29.5762   36.3783 H   0  0  0  0  0  0  0  0  0  0  0  0
  1  2  1  0  0  0  0
  1  6  1  0  0  0  0
  1 14  2  0  0  0  0
  3  4  1  0  0  0  0
  3 18  1  0  0  0  0
  3 19  1  0  0  0  0
  5 18  2  0  0  0  0
  6  7  1  0  0  0  0
  6  9  2  0  0  0  0
  8 22  2  0  0  0  0
  8 24  1  0  0  0  0
  9 10  1  0  0  0  0
  9 11  1  0  0  0  0
 11 12  2  0  0  0  0
 11 18  1  0  0  0  0
 12 13  1  0  0  0  0
 12 14  1  0  0  0  0
 14 15  1  0  0  0  0
 15 16  1  0  0  0  0
 15 17  1  0  0  0  0
 19 20  2  0  0  0  0
 19 26  1  0  0  0  0
 20 21  1  0  0  0  0
 20 22  1  0  0  0  0
 22 23  1  0  0  0  0
 24 25  1  0  0  0  0
 24 26  2  0  0  0  0
 26 27  1  0  0  0  0
M  END
$$$$
tyk2_liang_ejmc_13
  MOE2024           3D
tyk2_liang_ejmc_13
 29 30  0  0  0  0  0  0  0  0999 V2000
   34.0850   34.8600   37.6560 C   0  0  0  0  0  0  0  0  0  0  0  0
   34.7744   35.5943   37.9917 H   0  0  0  0  0  0  0  0  0  0  0  0
   30.4980   32.0140   35.3060 N   0  0  0  0  0  0  0  0  0  0  0  0
   30.5924   32.8961   34.7905 H   0  0  0  0  0  0  0  0  0  0  0  0
   31.3550   30.8420   37.0530 O   0  0  0  0  0  0  0  0  0  0  0  0
   34.3220   34.1720   36.4650 C   0  0  0  0  0  0  0  0  0  0  0  0
   35.1034   34.3541   35.9461 H   0  0  0  0  0  0  0  0  0  0  0  0
   27.9100   29.1780   33.5840 N   0  0  0  0  0  0  0  0  0  0  0  0
   33.4110   33.2050   36.0310 C   0  0  0  0  0  0  0  0  0  0  0  0
   33.6008   32.6624   35.1394 H   0  0  0  0  0  0  0  0  0  0  0  0
   32.2560   32.9420   36.7670 C   0  0  0  0  0  0  0  0  0  0  0  0
   32.0430   33.6060   37.9670 C   0  0  0  0  0  0  0  0  0  0  0  0
   30.6108   33.2899   38.9136 Cl  0  0  0  0  0  0  0  0  0  0  0  0
   32.9430   34.5780   38.4090 C   0  0  0  0  0  0  0  0  0  0  0  0
   32.6814   35.2482   39.5964 O   0  0  0  0  0  0  0  0  0  0  0  0
   33.5309   36.2385   40.2211 C   0  0  0  0  0  0  0  0  0  0  0  0
   33.0549   36.5427   41.1536 H   0  0  0  0  0  0  0  0  0  0  0  0
   33.6229   37.0898   39.5462 H   0  0  0  0  0  0  0  0  0  0  0  0
   34.5015   35.7839   40.4215 H   0  0  0  0  0  0  0  0  0  0  0  0
   31.3180   31.8470   36.3570 C   0  0  0  0  0  0  0  0  0  0  0  0
   29.6000   31.0560   34.7790 C   0  0  0  0  0  0  0  0  0  0  0  0
   29.0380   31.2910   33.5110 C   0  0  0  0  0  0  0  0  0  0  0  0
   29.2608   32.1906   33.0013 H   0  0  0  0  0  0  0  0  0  0  0  0
   28.1860   30.3280   32.9330 C   0  0  0  0  0  0  0  0  0  0  0  0
   27.7276   30.4484   31.9815 H   0  0  0  0  0  0  0  0  0  0  0  0
   28.4490   28.9090   34.8080 C   0  0  0  0  0  0  0  0  0  0  0  0
   28.2231   27.9766   35.3039 H   0  0  0  0  0  0  0  0  0  0  0  0
   29.2950   29.8410   35.4220 C   0  0  0  0  0  0  0  0  0  0  0  0
   29.6436   29.5762   36.3783 H   0  0  0  0  0  0  0  0  0  0  0  0
  1  2  1  0  0  0  0
  1  6  1  0  0  0  0
  1 14  2  0  0  0  0
  3  4  1  0  0  0  0
  3 20  1  0  0  0  0
  3 21  1  0  0  0  0
  5 20  2  0  0  0  0
  6  7  1  0  0  0  0
  6  9  2  0  0  0  0
  8 24  2  0  0  0  0
  8 26  1  0  0  0  0
  9 10  1  0  0  0  0
  9 11  1  0  0  0  0
 11 12  2  0  0  0  0
 11 20  1  0  0  0  0
 12 13  1  0  0  0  0
 12 14  1  0  0  0  0
 14 15  1  0  0  0  0
 15 16  1  0  0  0  0
 16 17  1  0  0  0  0
 16 18  1  0  0  0  0
 16 19  1  0  0  0  0
 21 22  2  0  0  0  0
 21 28  1  0  0  0  0
 22 23  1  0  0  0  0
 22 24  1  0  0  0  0
 24 25  1  0  0  0  0
 26 27  1  0  0  0  0
 26 28  2  0  0  0  0
 28 29  1  0  0  0  0
M  END
$$$$
tyk2_liang_ejmc_14
  MOE2024           3D
tyk2_liang_ejmc_14
 25 26  0  0  0  0  0  0  0  0999 V2000
   34.0850   34.8600   37.6560 C   0  0  0  0  0  0  0  0  0  0  0  0
   34.7744   35.5943   37.9917 H   0  0  0  0  0  0  0  0  0  0  0  0
   30.4980   32.0140   35.3060 N   0  0  0  0  0  0  0  0  0  0  0  0
   30.5924   32.8961   34.7905 H   0  0  0  0  0  0  0  0  0  0  0  0
   31.3550   30.8420   37.0530 O   0  0  0  0  0  0  0  0  0  0  0  0
   34.3220   34.1720   36.4650 C   0  0  0  0  0  0  0  0  0  0  0  0
   35.7371   34.5118   35.5342 Cl  0  0  0  0  0  0  0  0  0  0  0  0
   27.9100   29.1780   33.5840 N   0  0  0  0  0  0  0  0  0  0  0  0
   33.4110   33.2050   36.0310 C   0  0  0  0  0  0  0  0  0  0  0  0
   33.6095   32.6658   35.1404 H   0  0  0  0  0  0  0  0  0  0  0  0
   32.2560   32.9420   36.7670 C   0  0  0  0  0  0  0  0  0  0  0  0
   32.0430   33.6060   37.9670 C   0  0  0  0  0  0  0  0  0  0  0  0
   30.6302   33.3103   38.9344 Cl  0  0  0  0  0  0  0  0  0  0  0  0
   32.9430   34.5780   38.4090 C   0  0  0  0  0  0  0  0  0  0  0  0
   32.7550   35.0913   39.3176 H   0  0  0  0  0  0  0  0  0  0  0  0
   31.3180   31.8470   36.3570 C   0  0  0  0  0  0  0  0  0  0  0  0
   29.6000   31.0560   34.7790 C   0  0  0  0  0  0  0  0  0  0  0  0
   29.0380   31.2910   33.5110 C   0  0  0  0  0  0  0  0  0  0  0  0
   29.2608   32.1906   33.0013 H   0  0  0  0  0  0  0  0  0  0  0  0
   28.1860   30.3280   32.9330 C   0  0  0  0  0  0  0  0  0  0  0  0
   27.7276   30.4484   31.9815 H   0  0  0  0  0  0  0  0  0  0  0  0
   28.4490   28.9090   34.8080 C   0  0  0  0  0  0  0  0  0  0  0  0
   28.2231   27.9766   35.3039 H   0  0  0  0  0  0  0  0  0  0  0  0
   29.2950   29.8410   35.4220 C   0  0  0  0  0  0  0  0  0  0  0  0
   29.6436   29.5762   36.3783 H   0  0  0  0  0  0  0  0  0  0  0  0
  1  2  1  0  0  0  0
  1  6  1  0  0  0  0
  1 14  2  0  0  0  0
  3  4  1  0  0  0  0
  3 16  1  0  0  0  0
  3 17  1  0  0  0  0
  5 16  2  0  0  0  0
  6  7  1  0  0  0  0
  6  9  2  0  0  0  0
  8 20  2  0  0  0  0
  8 22  1  0  0  0  0
  9 10  1  0  0  0  0
  9 11  1  0  0  0  0
 11 12  2  0  0  0  0
 11 16  1  0  0  0  0
 12 13  1  0  0  0  0
 12 14  1  0  0  0  0
 14 15  1  0  0  0  0
 17 18  2  0  0  0  0
 17 24  1  0  0  0  0
 18 19  1  0  0  0  0
 18 20  1  0  0  0  0
 20 21  1  0  0  0  0
 22 23  1  0  0  0  0
 22 24  2  0  0  0  0
 24 25  1  0  0  0  0
M  END
$$$$
tyk2_liang_ejmc_15
  MOE2024           3D
tyk2_liang_ejmc_15
 28 29  0  0  0  0  0  0  0  0999 V2000
   34.0850   34.8600   37.6560 C   0  0  0  0  0  0  0  0  0  0  0  0
   34.7744   35.5943   37.9917 H   0  0  0  0  0  0  0  0  0  0  0  0
   30.4980   32.0140   35.3060 N   0  0  0  0  0  0  0  0  0  0  0  0
   30.5924   32.8961   34.7905 H   0  0  0  0  0  0  0  0  0  0  0  0
   31.3550   30.8420   37.0530 O   0  0  0  0  0  0  0  0  0  0  0  0
   34.3220   34.1720   36.4650 C   0  0  0  0  0  0  0  0  0  0  0  0
   35.5951   34.4586   35.6472 C   0  0  0  0  0  0  0  0  0  0  0  0
   35.9734   35.7396   35.8007 F   0  0  0  0  0  0  0  0  0  0  0  0
   35.3650   34.2318   34.3405 F   0  0  0  0  0  0  0  0  0  0  0  0
   36.5801   33.6544   36.0663 F   0  0  0  0  0  0  0  0  0  0  0  0
   27.9100   29.1780   33.5840 N   0  0  0  0  0  0  0  0  0  0  0  0
   33.4110   33.2050   36.0310 C   0  0  0  0  0  0  0  0  0  0  0  0
   33.5938   32.6509   35.1433 H   0  0  0  0  0  0  0  0  0  0  0  0
   32.2560   32.9420   36.7670 C   0  0  0  0  0  0  0  0  0  0  0  0
   32.0430   33.6060   37.9670 C   0  0  0  0  0  0  0  0  0  0  0  0
   30.6265   33.3107   38.9340 Cl  0  0  0  0  0  0  0  0  0  0  0  0
   32.9430   34.5780   38.4090 C   0  0  0  0  0  0  0  0  0  0  0  0
   32.7547   35.0917   39.3174 H   0  0  0  0  0  0  0  0  0  0  0  0
   31.3180   31.8470   36.3570 C   0  0  0  0  0  0  0  0  0  0  0  0
   29.6000   31.0560   34.7790 C   0  0  0  0  0  0  0  0  0  0  0  0
   29.0380   31.2910   33.5110 C   0  0  0  0  0  0  0  0  0  0  0  0
   29.2608   32.1906   33.0013 H   0  0  0  0  0  0  0  0  0  0  0  0
   28.1860   30.3280   32.9330 C   0  0  0  0  0  0  0  0  0  0  0  0
   27.7276   30.4484   31.9815 H   0  0  0  0  0  0  0  0  0  0  0  0
   28.4490   28.9090   34.8080 C   0  0  0  0  0  0  0  0  0  0  0  0
   28.2231   27.9766   35.3039 H   0  0  0  0  0  0  0  0  0  0  0  0
   29.2950   29.8410   35.4220 C   0  0  0  0  0  0  0  0  0  0  0  0
   29.6436   29.5762   36.3783 H   0  0  0  0  0  0  0  0  0  0  0  0
  1  2  1  0  0  0  0
  1  6  1  0  0  0  0
  1 17  2  0  0  0  0
  3  4  1  0  0  0  0
  3 19  1  0  0  0  0
  3 20  1  0  0  0  0
  5 19  2  0  0  0  0
  6  7  1  0  0  0  0
  6 12  2  0  0  0  0
  7  8  1  0  0  0  0
  7  9  1  0  0  0  0
  7 10  1  0  0  0  0
 11 23  2  0  0  0  0
 11 25  1  0  0  0  0
 12 13  1  0  0  0  0
 12 14  1  0  0  0  0
 14 15  2  0  0  0  0
 14 19  1  0  0  0  0
 15 16  1  0  0  0  0
 15 17  1  0  0  0  0
 17 18  1  0  0  0  0
 20 21  2  0  0  0  0
 20 27  1  0  0  0  0
 21 22  1  0  0  0  0
 21 23  1  0  0  0  0
 23 24  1  0  0  0  0
 25 26  1  0  0  0  0
 25 27  2  0  0  0  0
 27 28  1  0  0  0  0
M  END
$$$$
tyk2_liang_ejmc_16
  MOE2024           3D
tyk2_liang_ejmc_16
 29 30  0  0  0  0  0  0  0  0999 V2000
   34.0850   34.8600   37.6560 C   0  0  0  0  0  0  0  0  0  0  0  0
   34.7744   35.5943   37.9917 H   0  0  0  0  0  0  0  0  0  0  0  0
   30.4980   32.0140   35.3060 N   0  0  0  0  0  0  0  0  0  0  0  0
   30.5924   32.8961   34.7905 H   0  0  0  0  0  0  0  0  0  0  0  0
   31.3550   30.8420   37.0530 O   0  0  0  0  0  0  0  0  0  0  0  0
   34.3220   34.1720   36.4650 C   0  0  0  0  0  0  0  0  0  0  0  0
   35.4676   34.4803   35.7648 O   0  0  0  0  0  0  0  0  0  0  0  0
   35.9352   33.7886   34.5836 C   0  0  0  0  0  0  0  0  0  0  0  0
   36.8838   34.2381   34.2892 H   0  0  0  0  0  0  0  0  0  0  0  0
   35.1948   33.9133   33.7932 H   0  0  0  0  0  0  0  0  0  0  0  0
   36.0755   32.7365   34.8336 H   0  0  0  0  0  0  0  0  0  0  0  0
   27.9100   29.1780   33.5840 N   0  0  0  0  0  0  0  0  0  0  0  0
   33.4110   33.2050   36.0310 C   0  0  0  0  0  0  0  0  0  0  0  0
   33.5957   32.6596   35.1433 H   0  0  0  0  0  0  0  0  0  0  0  0
   32.2560   32.9420   36.7670 C   0  0  0  0  0  0  0  0  0  0  0  0
   32.0430   33.6060   37.9670 C   0  0  0  0  0  0  0  0  0  0  0  0
   30.6288   33.3095   38.9349 Cl  0  0  0  0  0  0  0  0  0  0  0  0
   32.9430   34.5780   38.4090 C   0  0  0  0  0  0  0  0  0  0  0  0
   32.7561   35.0919   39.3169 H   0  0  0  0  0  0  0  0  0  0  0  0
   31.3180   31.8470   36.3570 C   0  0  0  0  0  0  0  0  0  0  0  0
   29.6000   31.0560   34.7790 C   0  0  0  0  0  0  0  0  0  0  0  0
   29.0380   31.2910   33.5110 C   0  0  0  0  0  0  0  0  0  0  0  0
   29.2608   32.1906   33.0013 H   0  0  0  0  0  0  0  0  0  0  0  0
   28.1860   30.3280   32.9330 C   0  0  0  0  0  0  0  0  0  0  0  0
   27.7276   30.4484   31.9815 H   0  0  0  0  0  0  0  0  0  0  0  0
   28.4490   28.9090   34.8080 C   0  0  0  0  0  0  0  0  0  0  0  0
   28.2231   27.9766   35.3039 H   0  0  0  0  0  0  0  0  0  0  0  0
   29.2950   29.8410   35.4220 C   0  0  0  0  0  0  0  0  0  0  0  0
   29.6436   29.5762   36.3783 H   0  0  0  0  0  0  0  0  0  0  0  0
  1  2  1  0  0  0  0
  1  6  1  0  0  0  0
  1 18  2  0  0  0  0
  3  4  1  0  0  0  0
  3 20  1  0  0  0  0
  3 21  1  0  0  0  0
  5 20  2  0  0  0  0
  6  7  1  0  0  0  0
  6 13  2  0  0  0  0
  7  8  1  0  0  0  0
  8  9  1  0  0  0  0
  8 10  1  0  0  0  0
  8 11  1  0  0  0  0
 12 24  2  0  0  0  0
 12 26  1  0  0  0  0
 13 14  1  0  0  0  0
 13 15  1  0  0  0  0
 15 16  2  0  0  0  0
 15 20  1  0  0  0  0
 16 17  1  0  0  0  0
 16 18  1  0  0  0  0
 18 19  1  0  0  0  0
 21 22  2  0  0  0  0
 21 28  1  0  0  0  0
 22 23  1  0  0  0  0
 22 24  1  0  0  0  0
 24 25  1  0  0  0  0
 26 27  1  0  0  0  0
 26 28  2  0  0  0  0
 28 29  1  0  0  0  0
M  END
$$$$
tyk2_liang_ejmc_17
  MOE2024           3D
tyk2_liang_ejmc_17
 25 26  0  0  0  0  0  0  0  0999 V2000
   34.0850   34.8600   37.6560 C   0  0  0  0  0  0  0  0  0  0  0  0
   35.2093   36.0629   38.1964 Cl  0  0  0  0  0  0  0  0  0  0  0  0
   30.4980   32.0140   35.3060 N   0  0  0  0  0  0  0  0  0  0  0  0
   30.5924   32.8961   34.7905 H   0  0  0  0  0  0  0  0  0  0  0  0
   31.3550   30.8420   37.0530 O   0  0  0  0  0  0  0  0  0  0  0  0
   34.3220   34.1720   36.4650 C   0  0  0  0  0  0  0  0  0  0  0  0
   35.1976   34.3828   35.9053 H   0  0  0  0  0  0  0  0  0  0  0  0
   27.9100   29.1780   33.5840 N   0  0  0  0  0  0  0  0  0  0  0  0
   33.4110   33.2050   36.0310 C   0  0  0  0  0  0  0  0  0  0  0  0
   33.6009   32.6614   35.1396 H   0  0  0  0  0  0  0  0  0  0  0  0
   32.2560   32.9420   36.7670 C   0  0  0  0  0  0  0  0  0  0  0  0
   32.0430   33.6060   37.9670 C   0  0  0  0  0  0  0  0  0  0  0  0
   30.6272   33.3085   38.9333 Cl  0  0  0  0  0  0  0  0  0  0  0  0
   32.9430   34.5780   38.4090 C   0  0  0  0  0  0  0  0  0  0  0  0
   32.7637   35.0965   39.3148 H   0  0  0  0  0  0  0  0  0  0  0  0
   31.3180   31.8470   36.3570 C   0  0  0  0  0  0  0  0  0  0  0  0
   29.6000   31.0560   34.7790 C   0  0  0  0  0  0  0  0  0  0  0  0
   29.0380   31.2910   33.5110 C   0  0  0  0  0  0  0  0  0  0  0  0
   29.2608   32.1906   33.0013 H   0  0  0  0  0  0  0  0  0  0  0  0
   28.1860   30.3280   32.9330 C   0  0  0  0  0  0  0  0  0  0  0  0
   27.7276   30.4484   31.9815 H   0  0  0  0  0  0  0  0  0  0  0  0
   28.4490   28.9090   34.8080 C   0  0  0  0  0  0  0  0  0  0  0  0
   28.2231   27.9766   35.3039 H   0  0  0  0  0  0  0  0  0  0  0  0
   29.2950   29.8410   35.4220 C   0  0  0  0  0  0  0  0  0  0  0  0
   29.6436   29.5762   36.3783 H   0  0  0  0  0  0  0  0  0  0  0  0
  1  2  1  0  0  0  0
  1  6  1  0  0  0  0
  1 14  2  0  0  0  0
  3  4  1  0  0  0  0
  3 16  1  0  0  0  0
  3 17  1  0  0  0  0
  5 16  2  0  0  0  0
  6  7  1  0  0  0  0
  6  9  2  0  0  0  0
  8 20  2  0  0  0  0
  8 22  1  0  0  0  0
  9 10  1  0  0  0  0
  9 11  1  0  0  0  0
 11 12  2  0  0  0  0
 11 16  1  0  0  0  0
 12 13  1  0  0  0  0
 12 14  1  0  0  0  0
 14 15  1  0  0  0  0
 17 18  2  0  0  0  0
 17 24  1  0  0  0  0
 18 19  1  0  0  0  0
 18 20  1  0  0  0  0
 20 21  1  0  0  0  0
 22 23  1  0  0  0  0
 22 24  2  0  0  0  0
 24 25  1  0  0  0  0
M  END
$$$$
tyk2_liang_ejmc_18
  MOE2024           3D
tyk2_liang_ejmc_18
 28 29  0  0  0  0  0  0  0  0999 V2000
   34.0850   34.8600   37.6560 C   0  0  0  0  0  0  0  0  0  0  0  0
   35.0633   35.9310   38.1692 C   0  0  0  0  0  0  0  0  0  0  0  0
   36.1038   36.0851   37.3304 F   0  0  0  0  0  0  0  0  0  0  0  0
   35.5247   35.5702   39.3761 F   0  0  0  0  0  0  0  0  0  0  0  0
   34.4166   37.1019   38.2794 F   0  0  0  0  0  0  0  0  0  0  0  0
   30.4980   32.0140   35.3060 N   0  0  0  0  0  0  0  0  0  0  0  0
   30.5924   32.8961   34.7905 H   0  0  0  0  0  0  0  0  0  0  0  0
   31.3550   30.8420   37.0530 O   0  0  0  0  0  0  0  0  0  0  0  0
   34.3220   34.1720   36.4650 C   0  0  0  0  0  0  0  0  0  0  0  0
   35.1917   34.3649   35.8859 H   0  0  0  0  0  0  0  0  0  0  0  0
   27.9100   29.1780   33.5840 N   0  0  0  0  0  0  0  0  0  0  0  0
   33.4110   33.2050   36.0310 C   0  0  0  0  0  0  0  0  0  0  0  0
   33.6013   32.6614   35.1397 H   0  0  0  0  0  0  0  0  0  0  0  0
   32.2560   32.9420   36.7670 C   0  0  0  0  0  0  0  0  0  0  0  0
   32.0430   33.6060   37.9670 C   0  0  0  0  0  0  0  0  0  0  0  0
   30.6289   33.3100   38.9356 Cl  0  0  0  0  0  0  0  0  0  0  0  0
   32.9430   34.5780   38.4090 C   0  0  0  0  0  0  0  0  0  0  0  0
   32.7484   35.0888   39.3191 H   0  0  0  0  0  0  0  0  0  0  0  0
   31.3180   31.8470   36.3570 C   0  0  0  0  0  0  0  0  0  0  0  0
   29.6000   31.0560   34.7790 C   0  0  0  0  0  0  0  0  0  0  0  0
   29.0380   31.2910   33.5110 C   0  0  0  0  0  0  0  0  0  0  0  0
   29.2608   32.1906   33.0013 H   0  0  0  0  0  0  0  0  0  0  0  0
   28.1860   30.3280   32.9330 C   0  0  0  0  0  0  0  0  0  0  0  0
   27.7276   30.4484   31.9815 H   0  0  0  0  0  0  0  0  0  0  0  0
   28.4490   28.9090   34.8080 C   0  0  0  0  0  0  0  0  0  0  0  0
   28.2231   27.9766   35.3039 H   0  0  0  0  0  0  0  0  0  0  0  0
   29.2950   29.8410   35.4220 C   0  0  0  0  0  0  0  0  0  0  0  0
   29.6436   29.5762   36.3783 H   0  0  0  0  0  0  0  0  0  0  0  0
  1  2  1  0  0  0  0
  1  9  1  0  0  0  0
  1 17  2  0  0  0  0
  2  3  1  0  0  0  0
  2  4  1  0  0  0  0
  2  5  1  0  0  0  0
  6  7  1  0  0  0  0
  6 19  1  0  0  0  0
  6 20  1  0  0  0  0
  8 19  2  0  0  0  0
  9 10  1  0  0  0  0
  9 12  2  0  0  0  0
 11 23  2  0  0  0  0
 11 25  1  0  0  0  0
 12 13  1  0  0  0  0
 12 14  1  0  0  0  0
 14 15  2  0  0  0  0
 14 19  1  0  0  0  0
 15 16  1  0  0  0  0
 15 17  1  0  0  0  0
 17 18  1  0  0  0  0
 20 21  2  0  0  0  0
 20 27  1  0  0  0  0
 21 22  1  0  0  0  0
 21 23  1  0  0  0  0
 23 24  1  0  0  0  0
 25 26  1  0  0  0  0
 25 27  2  0  0  0  0
 27 28  1  0  0  0  0
M  END
$$$$
tyk2_liang_ejmc_19
  MOE2024           3D
tyk2_liang_ejmc_19
 27 28  0  0  0  0  0  0  0  0999 V2000
   34.0850   34.8600   37.6560 C   0  0  0  0  0  0  0  0  0  0  0  0
   34.9794   35.8180   38.0856 N   0  0  0  0  0  0  0  0  0  0  0  0
   34.9437   36.0511   39.0896 H   0  0  0  0  0  0  0  0  0  0  0  0
   35.9312   35.7553   37.6944 H   0  0  0  0  0  0  0  0  0  0  0  0
   30.4980   32.0140   35.3060 N   0  0  0  0  0  0  0  0  0  0  0  0
   30.5924   32.8961   34.7905 H   0  0  0  0  0  0  0  0  0  0  0  0
   31.3550   30.8420   37.0530 O   0  0  0  0  0  0  0  0  0  0  0  0
   34.3220   34.1720   36.4650 C   0  0  0  0  0  0  0  0  0  0  0  0
   35.1931   34.3839   35.9004 H   0  0  0  0  0  0  0  0  0  0  0  0
   27.9100   29.1780   33.5840 N   0  0  0  0  0  0  0  0  0  0  0  0
   33.4110   33.2050   36.0310 C   0  0  0  0  0  0  0  0  0  0  0  0
   33.6000   32.6632   35.1392 H   0  0  0  0  0  0  0  0  0  0  0  0
   32.2560   32.9420   36.7670 C   0  0  0  0  0  0  0  0  0  0  0  0
   32.0430   33.6060   37.9670 C   0  0  0  0  0  0  0  0  0  0  0  0
   30.6261   33.3073   38.9334 Cl  0  0  0  0  0  0  0  0  0  0  0  0
   32.9430   34.5780   38.4090 C   0  0  0  0  0  0  0  0  0  0  0  0
   32.7573   35.0987   39.3110 H   0  0  0  0  0  0  0  0  0  0  0  0
   31.3180   31.8470   36.3570 C   0  0  0  0  0  0  0  0  0  0  0  0
   29.6000   31.0560   34.7790 C   0  0  0  0  0  0  0  0  0  0  0  0
   29.0380   31.2910   33.5110 C   0  0  0  0  0  0  0  0  0  0  0  0
   29.2608   32.1906   33.0013 H   0  0  0  0  0  0  0  0  0  0  0  0
   28.1860   30.3280   32.9330 C   0  0  0  0  0  0  0  0  0  0  0  0
   27.7276   30.4484   31.9815 H   0  0  0  0  0  0  0  0  0  0  0  0
   28.4490   28.9090   34.8080 C   0  0  0  0  0  0  0  0  0  0  0  0
   28.2231   27.9766   35.3039 H   0  0  0  0  0  0  0  0  0  0  0  0
   29.2950   29.8410   35.4220 C   0  0  0  0  0  0  0  0  0  0  0  0
   29.6436   29.5762   36.3783 H   0  0  0  0  0  0  0  0  0  0  0  0
  1  2  1  0  0  0  0
  1  8  1  0  0  0  0
  1 16  2  0  0  0  0
  2  3  1  0  0  0  0
  2  4  1  0  0  0  0
  5  6  1  0  0  0  0
  5 18  1  0  0  0  0
  5 19  1  0  0  0  0
  7 18  2  0  0  0  0
  8  9  1  0  0  0  0
  8 11  2  0  0  0  0
 10 22  2  0  0  0  0
 10 24  1  0  0  0  0
 11 12  1  0  0  0  0
 11 13  1  0  0  0  0
 13 14  2  0  0  0  0
 13 18  1  0  0  0  0
 14 15  1  0  0  0  0
 14 16  1  0  0  0  0
 16 17  1  0  0  0  0
 19 20  2  0  0  0  0
 19 26  1  0  0  0  0
 20 21  1  0  0  0  0
 20 22  1  0  0  0  0
 22 23  1  0  0  0  0
 24 25  1  0  0  0  0
 24 26  2  0  0  0  0
 26 27  1  0  0  0  0
M  END
$$$$
tyk2_liang_ejmc_20
  MOE2024           3D
tyk2_liang_ejmc_20
 29 30  0  0  0  0  0  0  0  0999 V2000
   34.0850   34.8600   37.6560 C   0  0  0  0  0  0  0  0  0  0  0  0
   35.0077   35.7989   38.0370 O   0  0  0  0  0  0  0  0  0  0  0  0
   34.9408   36.5830   39.2513 C   0  0  0  0  0  0  0  0  0  0  0  0
   35.8184   37.2292   39.2788 H   0  0  0  0  0  0  0  0  0  0  0  0
   34.9446   35.9015   40.1026 H   0  0  0  0  0  0  0  0  0  0  0  0
   34.0296   37.1814   39.2267 H   0  0  0  0  0  0  0  0  0  0  0  0
   30.4980   32.0140   35.3060 N   0  0  0  0  0  0  0  0  0  0  0  0
   30.5924   32.8961   34.7905 H   0  0  0  0  0  0  0  0  0  0  0  0
   31.3550   30.8420   37.0530 O   0  0  0  0  0  0  0  0  0  0  0  0
   34.3220   34.1720   36.4650 C   0  0  0  0  0  0  0  0  0  0  0  0
   35.1978   34.3830   35.9060 H   0  0  0  0  0  0  0  0  0  0  0  0
   27.9100   29.1780   33.5840 N   0  0  0  0  0  0  0  0  0  0  0  0
   33.4110   33.2050   36.0310 C   0  0  0  0  0  0  0  0  0  0  0  0
   33.6021   32.6622   35.1401 H   0  0  0  0  0  0  0  0  0  0  0  0
   32.2560   32.9420   36.7670 C   0  0  0  0  0  0  0  0  0  0  0  0
   32.0430   33.6060   37.9670 C   0  0  0  0  0  0  0  0  0  0  0  0
   30.6273   33.3090   38.9348 Cl  0  0  0  0  0  0  0  0  0  0  0  0
   32.9430   34.5780   38.4090 C   0  0  0  0  0  0  0  0  0  0  0  0
   32.7499   35.0875   39.3152 H   0  0  0  0  0  0  0  0  0  0  0  0
   31.3180   31.8470   36.3570 C   0  0  0  0  0  0  0  0  0  0  0  0
   29.6000   31.0560   34.7790 C   0  0  0  0  0  0  0  0  0  0  0  0
   29.0380   31.2910   33.5110 C   0  0  0  0  0  0  0  0  0  0  0  0
   29.2608   32.1906   33.0013 H   0  0  0  0  0  0  0  0  0  0  0  0
   28.1860   30.3280   32.9330 C   0  0  0  0  0  0  0  0  0  0  0  0
   27.7276   30.4484   31.9815 H   0  0  0  0  0  0  0  0  0  0  0  0
   28.4490   28.9090   34.8080 C   0  0  0  0  0  0  0  0  0  0  0  0
   28.2231   27.9766   35.3039 H   0  0  0  0  0  0  0  0  0  0  0  0
   29.2950   29.8410   35.4220 C   0  0  0  0  0  0  0  0  0  0  0  0
   29.6436   29.5762   36.3783 H   0  0  0  0  0  0  0  0  0  0  0  0
  1  2  1  0  0  0  0
  1 10  1  0  0  0  0
  1 18  2  0  0  0  0
  2  3  1  0  0  0  0
  3  4  1  0  0  0  0
  3  5  1  0  0  0  0
  3  6  1  0  0  0  0
  7  8  1  0  0  0  0
  7 20  1  0  0  0  0
  7 21  1  0  0  0  0
  9 20  2  0  0  0  0
 10 11  1  0  0  0  0
 10 13  2  0  0  0  0
 12 24  2  0  0  0  0
 12 26  1  0  0  0  0
 13 14  1  0  0  0  0
 13 15  1  0  0  0  0
 15 16  2  0  0  0  0
 15 20  1  0  0  0  0
 16 17  1  0  0  0  0
 16 18  1  0  0  0  0
 18 19  1  0  0  0  0
 21 22  2  0  0  0  0
 21 28  1  0  0  0  0
 22 23  1  0  0  0  0
 22 24  1  0  0  0  0
 24 25  1  0  0  0  0
 26 27  1  0  0  0  0
 26 28  2  0  0  0  0
 28 29  1  0  0  0  0
M  END
$$$$
tyk2_liang_ejmc_21
  MOE2024           3D
tyk2_liang_ejmc_21
 25 26  0  0  0  0  0  0  0  0999 V2000
   35.3812   32.3388   35.4511 C   0  0  0  0  0  0  0  0  0  0  0  0
   36.3941   32.4692   35.1550 H   0  0  0  0  0  0  0  0  0  0  0  0
   30.4701   32.0638   35.3889 C   0  0  0  0  0  0  0  0  0  0  0  0
   31.0650   30.8893   37.0085 H   0  0  0  0  0  0  0  0  0  0  0  0
   34.7339   31.1337   35.1922 C   0  0  0  0  0  0  0  0  0  0  0  0
   35.2491   30.3435   34.7042 H   0  0  0  0  0  0  0  0  0  0  0  0
   27.9100   29.1780   33.5840 N   0  0  0  0  0  0  0  0  0  0  0  0
   33.4022   30.9632   35.5794 C   0  0  0  0  0  0  0  0  0  0  0  0
   32.6237   29.4459   35.2825 Cl  0  0  0  0  0  0  0  0  0  0  0  0
   32.7115   32.0039   36.2136 C   0  0  0  0  0  0  0  0  0  0  0  0
   33.3809   33.2031   36.4873 C   0  0  0  0  0  0  0  0  0  0  0  0
   32.5674   34.4804   37.3298 Cl  0  0  0  0  0  0  0  0  0  0  0  0
   34.7123   33.3732   36.0999 C   0  0  0  0  0  0  0  0  0  0  0  0
   35.2091   34.2893   36.3033 H   0  0  0  0  0  0  0  0  0  0  0  0
   31.2495   31.8542   36.6182 N   0  0  0  0  0  0  0  0  0  0  0  0
   29.6000   31.0560   34.7790 C   0  0  0  0  0  0  0  0  0  0  0  0
   29.0380   31.2910   33.5110 C   0  0  0  0  0  0  0  0  0  0  0  0
   29.2608   32.1906   33.0013 H   0  0  0  0  0  0  0  0  0  0  0  0
   28.1860   30.3280   32.9330 C   0  0  0  0  0  0  0  0  0  0  0  0
   27.7276   30.4484   31.9815 H   0  0  0  0  0  0  0  0  0  0  0  0
   28.4490   28.9090   34.8080 C   0  0  0  0  0  0  0  0  0  0  0  0
   28.2231   27.9766   35.3039 H   0  0  0  0  0  0  0  0  0  0  0  0
   29.2950   29.8410   35.4220 C   0  0  0  0  0  0  0  0  0  0  0  0
   29.6436   29.5762   36.3783 H   0  0  0  0  0  0  0  0  0  0  0  0
   30.5896   33.1743   34.9586 O   0  0  0  0  0  0  0  0  0  0  0  0
  1  2  1  0  0  0  0
  1  5  1  0  0  0  0
  1 13  2  0  0  0  0
  3 15  1  0  0  0  0
  3 16  1  0  0  0  0
  3 25  2  0  0  0  0
  4 15  1  0  0  0  0
  5  6  1  0  0  0  0
  5  8  2  0  0  0  0
  7 19  2  0  0  0  0
  7 21  1  0  0  0  0
  8  9  1  0  0  0  0
  8 10  1  0  0  0  0
 10 11  2  0  0  0  0
 10 15  1  0  0  0  0
 11 12  1  0  0  0  0
 11 13  1  0  0  0  0
 13 14  1  0  0  0  0
 16 17  2  0  0  0  0
 16 23  1  0  0  0  0
 17 18  1  0  0  0  0
 17 19  1  0  0  0  0
 19 20  1  0  0  0  0
 21 22  1  0  0  0  0
 21 23  2  0  0  0  0
 23 24  1  0  0  0  0
M  END
$$$$
tyk2_liang_ejmc_22
  MOE2024           3D
tyk2_liang_ejmc_22
 26 27  0  0  0  0  0  0  0  0999 V2000
   30.5840   33.2210   38.9240 Cl  0  0  0  0  0  0  0  0  0  0  0  0
   33.7164   32.3612   34.5245 Cl  0  0  0  0  0  0  0  0  0  0  0  0
   34.0850   34.8600   37.6560 C   0  0  0  0  0  0  0  0  0  0  0  0
   34.7744   35.5943   37.9917 H   0  0  0  0  0  0  0  0  0  0  0  0
   30.4980   32.0140   35.3060 N   0  0  0  0  0  0  0  0  0  0  0  0
   30.5924   32.8961   34.7905 H   0  0  0  0  0  0  0  0  0  0  0  0
   34.3220   34.1720   36.4650 C   0  0  0  0  0  0  0  0  0  0  0  0
   35.1034   34.3541   35.9461 H   0  0  0  0  0  0  0  0  0  0  0  0
   27.9100   29.1780   33.5840 N   0  0  0  0  0  0  0  0  0  0  0  0
   33.4110   33.2050   36.0310 C   0  0  0  0  0  0  0  0  0  0  0  0
   32.2560   32.9420   36.7670 C   0  0  0  0  0  0  0  0  0  0  0  0
   32.0430   33.6060   37.9670 C   0  0  0  0  0  0  0  0  0  0  0  0
   32.9430   34.5780   38.4090 C   0  0  0  0  0  0  0  0  0  0  0  0
   32.7571   35.0900   39.3189 H   0  0  0  0  0  0  0  0  0  0  0  0
   31.3180   31.8470   36.3570 S   0  0  0  0  0  0  0  0  0  0  0  0
   29.6000   31.0560   34.7790 C   0  0  0  0  0  0  0  0  0  0  0  0
   29.0380   31.2910   33.5110 C   0  0  0  0  0  0  0  0  0  0  0  0
   29.2608   32.1906   33.0013 H   0  0  0  0  0  0  0  0  0  0  0  0
   28.1860   30.3280   32.9330 C   0  0  0  0  0  0  0  0  0  0  0  0
   27.7276   30.4484   31.9815 H   0  0  0  0  0  0  0  0  0  0  0  0
   28.4490   28.9090   34.8080 C   0  0  0  0  0  0  0  0  0  0  0  0
   28.2231   27.9766   35.3039 H   0  0  0  0  0  0  0  0  0  0  0  0
   29.2950   29.8410   35.4220 C   0  0  0  0  0  0  0  0  0  0  0  0
   29.6436   29.5762   36.3783 H   0  0  0  0  0  0  0  0  0  0  0  0
   30.2796   31.5063   37.7683 O   0  0  0  0  0  0  0  0  0  0  0  0
   32.4204   30.5547   35.8083 O   0  0  0  0  0  0  0  0  0  0  0  0
  1 12  1  0  0  0  0
  2 10  1  0  0  0  0
  3  4  1  0  0  0  0
  3  7  1  0  0  0  0
  3 13  2  0  0  0  0
  5  6  1  0  0  0  0
  5 15  1  0  0  0  0
  5 16  1  0  0  0  0
  7  8  1  0  0  0  0
  7 10  2  0  0  0  0
  9 19  2  0  0  0  0
  9 21  1  0  0  0  0
 10 11  1  0  0  0  0
 11 12  2  0  0  0  0
 11 15  1  0  0  0  0
 12 13  1  0  0  0  0
 13 14  1  0  0  0  0
 15 25  2  0  0  0  0
 15 26  2  0  0  0  0
 16 17  2  0  0  0  0
 16 23  1  0  0  0  0
 17 18  1  0  0  0  0
 17 19  1  0  0  0  0
 19 20  1  0  0  0  0
 21 22  1  0  0  0  0
 21 23  2  0  0  0  0
 23 24  1  0  0  0  0
M  END
$$$$
tyk2_liang_ejmc_23
  MOE2024           3D
tyk2_liang_ejmc_23
 26 27  0  0  0  0  0  0  0  0999 V2000
   30.8015   33.1093   38.8781 Cl  0  0  0  0  0  0  0  0  0  0  0  0
   33.5872   32.5587   34.1784 Cl  0  0  0  0  0  0  0  0  0  0  0  0
   33.6164   35.2946   37.0838 C   0  0  0  0  0  0  0  0  0  0  0  0
   34.1344   36.1980   37.2873 H   0  0  0  0  0  0  0  0  0  0  0  0
   30.4284   32.0189   35.3442 N   0  0  0  0  0  0  0  0  0  0  0  0
   30.7266   32.7550   34.6863 H   0  0  0  0  0  0  0  0  0  0  0  0
   33.8899   34.5822   35.9229 C   0  0  0  0  0  0  0  0  0  0  0  0
   34.6151   34.9363   35.2357 H   0  0  0  0  0  0  0  0  0  0  0  0
   27.9100   29.1780   33.5840 N   0  0  0  0  0  0  0  0  0  0  0  0
   33.2068   33.3937   35.6540 C   0  0  0  0  0  0  0  0  0  0  0  0
   32.2442   32.9012   36.5469 C   0  0  0  0  0  0  0  0  0  0  0  0
   31.9782   33.6351   37.7125 C   0  0  0  0  0  0  0  0  0  0  0  0
   32.6621   34.8243   37.9777 C   0  0  0  0  0  0  0  0  0  0  0  0
   32.4469   35.3638   38.8642 H   0  0  0  0  0  0  0  0  0  0  0  0
   31.5014   31.6118   36.2463 C   0  0  0  0  0  0  0  0  0  0  0  0
   32.1592   30.9126   35.7462 H   0  0  0  0  0  0  0  0  0  0  0  0
   31.0857   31.1888   37.1499 H   0  0  0  0  0  0  0  0  0  0  0  0
   29.6000   31.0560   34.7790 C   0  0  0  0  0  0  0  0  0  0  0  0
   29.0380   31.2910   33.5110 C   0  0  0  0  0  0  0  0  0  0  0  0
   29.2608   32.1906   33.0013 H   0  0  0  0  0  0  0  0  0  0  0  0
   28.1860   30.3280   32.9330 C   0  0  0  0  0  0  0  0  0  0  0  0
   27.7276   30.4484   31.9815 H   0  0  0  0  0  0  0  0  0  0  0  0
   28.4490   28.9090   34.8080 C   0  0  0  0  0  0  0  0  0  0  0  0
   28.2231   27.9766   35.3039 H   0  0  0  0  0  0  0  0  0  0  0  0
   29.2950   29.8410   35.4220 C   0  0  0  0  0  0  0  0  0  0  0  0
   29.6436   29.5762   36.3783 H   0  0  0  0  0  0  0  0  0  0  0  0
  1 12  1  0  0  0  0
  2 10  1  0  0  0  0
  3  4  1  0  0  0  0
  3  7  1  0  0  0  0
  3 13  2  0  0  0  0
  5  6  1  0  0  0  0
  5 15  1  0  0  0  0
  5 18  1  0  0  0  0
  7  8  1  0  0  0  0
  7 10  2  0  0  0  0
  9 21  2  0  0  0  0
  9 23  1  0  0  0  0
 10 11  1  0  0  0  0
 11 12  2  0  0  0  0
 11 15  1  0  0  0  0
 12 13  1  0  0  0  0
 13 14  1  0  0  0  0
 15 16  1  0  0  0  0
 15 17  1  0  0  0  0
 18 19  2  0  0  0  0
 18 25  1  0  0  0  0
 19 20  1  0  0  0  0
 19 21  1  0  0  0  0
 21 22  1  0  0  0  0
 23 24  1  0  0  0  0
 23 25  2  0  0  0  0
 25 26  1  0  0  0  0
M  END
$$$$
tyk2_liang_ejmc_24
  MOE2024           3D
tyk2_liang_ejmc_24
 28 29  0  0  0  0  0  0  0  0999 V2000
   30.6256   33.3118   38.9323 Cl  0  0  0  0  0  0  0  0  0  0  0  0
   33.7164   32.3612   34.5245 Cl  0  0  0  0  0  0  0  0  0  0  0  0
   34.0850   34.8600   37.6560 C   0  0  0  0  0  0  0  0  0  0  0  0
   34.7744   35.5943   37.9917 H   0  0  0  0  0  0  0  0  0  0  0  0
   30.4318   31.9538   35.2798 N   0  0  0  0  0  0  0  0  0  0  0  0
   30.3098   33.2153   34.5336 C   0  0  0  0  0  0  0  0  0  0  0  0
   30.3680   34.0358   35.2359 H   0  0  0  0  0  0  0  0  0  0  0  0
   29.3450   33.2180   34.0427 H   0  0  0  0  0  0  0  0  0  0  0  0
   31.1108   33.2499   33.8080 H   0  0  0  0  0  0  0  0  0  0  0  0
   31.3550   30.8420   37.0530 O   0  0  0  0  0  0  0  0  0  0  0  0
   34.3220   34.1720   36.4650 C   0  0  0  0  0  0  0  0  0  0  0  0
   35.1034   34.3541   35.9461 H   0  0  0  0  0  0  0  0  0  0  0  0
   28.0922   28.7412   33.9814 N   0  0  0  0  0  0  0  0  0  0  0  0
   33.4110   33.2050   36.0310 C   0  0  0  0  0  0  0  0  0  0  0  0
   32.2560   32.9420   36.7670 C   0  0  0  0  0  0  0  0  0  0  0  0
   32.0430   33.6060   37.9670 C   0  0  0  0  0  0  0  0  0  0  0  0
   32.9430   34.5780   38.4090 C   0  0  0  0  0  0  0  0  0  0  0  0
   32.7571   35.0900   39.3189 H   0  0  0  0  0  0  0  0  0  0  0  0
   31.3180   31.8470   36.3570 C   0  0  0  0  0  0  0  0  0  0  0  0
   29.6526   30.8534   34.8529 C   0  0  0  0  0  0  0  0  0  0  0  0
   29.6799   30.4562   33.5197 C   0  0  0  0  0  0  0  0  0  0  0  0
   30.3034   30.9500   32.8229 H   0  0  0  0  0  0  0  0  0  0  0  0
   28.8822   29.3916   33.1219 C   0  0  0  0  0  0  0  0  0  0  0  0
   28.8863   29.0686   32.1117 H   0  0  0  0  0  0  0  0  0  0  0  0
   28.0661   29.1110   35.2667 C   0  0  0  0  0  0  0  0  0  0  0  0
   27.4353   28.5708   35.9265 H   0  0  0  0  0  0  0  0  0  0  0  0
   28.8330   30.1656   35.7418 C   0  0  0  0  0  0  0  0  0  0  0  0
   28.7994   30.4406   36.7633 H   0  0  0  0  0  0  0  0  0  0  0  0
  1 16  1  0  0  0  0
  2 14  1  0  0  0  0
  3  4  1  0  0  0  0
  3 11  1  0  0  0  0
  3 17  2  0  0  0  0
  5  6  1  0  0  0  0
  5 19  1  0  0  0  0
  5 20  1  0  0  0  0
  6  7  1  0  0  0  0
  6  8  1  0  0  0  0
  6  9  1  0  0  0  0
 10 19  2  0  0  0  0
 11 12  1  0  0  0  0
 11 14  2  0  0  0  0
 13 23  2  0  0  0  0
 13 25  1  0  0  0  0
 14 15  1  0  0  0  0
 15 16  2  0  0  0  0
 15 19  1  0  0  0  0
 16 17  1  0  0  0  0
 17 18  1  0  0  0  0
 20 21  2  0  0  0  0
 20 27  1  0  0  0  0
 21 22  1  0  0  0  0
 21 23  1  0  0  0  0
 23 24  1  0  0  0  0
 25 26  1  0  0  0  0
 25 27  2  0  0  0  0
 27 28  1  0  0  0  0
M  END
$$$$
tyk2_liang_ejmc_25
  MOE2024           3D
tyk2_liang_ejmc_25
 28 29  0  0  0  0  0  0  0  0999 V2000
   30.6256   33.3118   38.9323 Cl  0  0  0  0  0  0  0  0  0  0  0  0
   33.7164   32.3612   34.5245 Cl  0  0  0  0  0  0  0  0  0  0  0  0
   34.0850   34.8600   37.6560 C   0  0  0  0  0  0  0  0  0  0  0  0
   34.7744   35.5943   37.9917 H   0  0  0  0  0  0  0  0  0  0  0  0
   30.4661   31.9350   35.2946 N   0  0  0  0  0  0  0  0  0  0  0  0
   30.4041   32.8212   34.7782 H   0  0  0  0  0  0  0  0  0  0  0  0
   29.4396   30.9352   35.0295 C   0  0  0  0  0  0  0  0  0  0  0  0
   29.4206   30.1685   35.7946 H   0  0  0  0  0  0  0  0  0  0  0  0
   29.5768   30.5277   34.0365 H   0  0  0  0  0  0  0  0  0  0  0  0
   31.3550   30.8420   37.0530 O   0  0  0  0  0  0  0  0  0  0  0  0
   34.3220   34.1720   36.4650 C   0  0  0  0  0  0  0  0  0  0  0  0
   35.1034   34.3541   35.9461 H   0  0  0  0  0  0  0  0  0  0  0  0
   33.4110   33.2050   36.0310 C   0  0  0  0  0  0  0  0  0  0  0  0
   32.2560   32.9420   36.7670 C   0  0  0  0  0  0  0  0  0  0  0  0
   32.0430   33.6060   37.9670 C   0  0  0  0  0  0  0  0  0  0  0  0
   32.9430   34.5780   38.4090 C   0  0  0  0  0  0  0  0  0  0  0  0
   32.7571   35.0900   39.3189 H   0  0  0  0  0  0  0  0  0  0  0  0
   31.3180   31.8470   36.3570 C   0  0  0  0  0  0  0  0  0  0  0  0
   25.7918   33.2013   35.2237 N   0  0  0  0  0  0  0  0  0  0  0  0
   26.4650   32.9108   36.3363 C   0  0  0  0  0  0  0  0  0  0  0  0
   26.0748   33.2567   37.2601 H   0  0  0  0  0  0  0  0  0  0  0  0
   27.6467   32.1771   36.3052 C   0  0  0  0  0  0  0  0  0  0  0  0
   28.1603   31.9652   37.2082 H   0  0  0  0  0  0  0  0  0  0  0  0
   28.1517   31.7283   35.0901 C   0  0  0  0  0  0  0  0  0  0  0  0
   27.4318   32.0456   33.9437 C   0  0  0  0  0  0  0  0  0  0  0  0
   27.7698   31.7312   32.9907 H   0  0  0  0  0  0  0  0  0  0  0  0
   26.2552   32.7827   34.0475 C   0  0  0  0  0  0  0  0  0  0  0  0
   25.6983   33.0282   33.1786 H   0  0  0  0  0  0  0  0  0  0  0  0
  1 15  1  0  0  0  0
  2 13  1  0  0  0  0
  3  4  1  0  0  0  0
  3 11  1  0  0  0  0
  3 16  2  0  0  0  0
  5  6  1  0  0  0  0
  5  7  1  0  0  0  0
  5 18  1  0  0  0  0
  7  8  1  0  0  0  0
  7  9  1  0  0  0  0
  7 24  1  0  0  0  0
 10 18  2  0  0  0  0
 11 12  1  0  0  0  0
 11 13  2  0  0  0  0
 13 14  1  0  0  0  0
 14 15  2  0  0  0  0
 14 18  1  0  0  0  0
 15 16  1  0  0  0  0
 16 17  1  0  0  0  0
 19 20  1  0  0  0  0
 19 27  2  0  0  0  0
 20 21  1  0  0  0  0
 20 22  2  0  0  0  0
 22 23  1  0  0  0  0
 22 24  1  0  0  0  0
 24 25  2  0  0  0  0
 25 26  1  0  0  0  0
 25 27  1  0  0  0  0
 27 28  1  0  0  0  0
M  END
$$$$
tyk2_liang_ejmc_26
  MOE2024           3D
tyk2_liang_ejmc_26
 28 30  0  0  0  0  0  0  0  0999 V2000
   30.5840   33.2210   38.9240 Cl  0  0  0  0  0  0  0  0  0  0  0  0
   33.7164   32.3612   34.5245 Cl  0  0  0  0  0  0  0  0  0  0  0  0
   34.0850   34.8600   37.6560 C   0  0  0  0  0  0  0  0  0  0  0  0
   34.7737   35.5950   37.9911 H   0  0  0  0  0  0  0  0  0  0  0  0
   34.3220   34.1720   36.4650 C   0  0  0  0  0  0  0  0  0  0  0  0
   35.1034   34.3541   35.9461 H   0  0  0  0  0  0  0  0  0  0  0  0
   33.4110   33.2050   36.0310 C   0  0  0  0  0  0  0  0  0  0  0  0
   32.2560   32.9420   36.7670 C   0  0  0  0  0  0  0  0  0  0  0  0
   32.0430   33.6060   37.9670 C   0  0  0  0  0  0  0  0  0  0  0  0
   32.9430   34.5780   38.4090 C   0  0  0  0  0  0  0  0  0  0  0  0
   32.7571   35.0900   39.3189 H   0  0  0  0  0  0  0  0  0  0  0  0
   30.2286   30.0227   35.8663 N   0  0  0  0  0  0  0  0  0  0  0  0
   31.2783   30.5795   36.5035 C   0  0  0  0  0  0  0  0  0  0  0  0
   31.9762   30.0234   37.0773 H   0  0  0  0  0  0  0  0  0  0  0  0
   31.3198   31.9279   36.3071 C   0  0  0  0  0  0  0  0  0  0  0  0
   30.2518   32.1819   35.5266 N   0  0  0  0  0  0  0  0  0  0  0  0
   29.9720   33.1060   35.1676 H   0  0  0  0  0  0  0  0  0  0  0  0
   29.6033   31.0148   35.2687 C   0  0  0  0  0  0  0  0  0  0  0  0
   26.1308   30.7348   32.8317 N   0  0  0  0  0  0  0  0  0  0  0  0
   26.5770   31.9301   33.2113 C   0  0  0  0  0  0  0  0  0  0  0  0
   26.0397   32.7845   32.8842 H   0  0  0  0  0  0  0  0  0  0  0  0
   27.7048   32.0730   34.0091 C   0  0  0  0  0  0  0  0  0  0  0  0
   28.0170   33.0425   34.2904 H   0  0  0  0  0  0  0  0  0  0  0  0
   28.4092   30.9425   34.4374 C   0  0  0  0  0  0  0  0  0  0  0  0
   27.9090   29.7060   34.0251 C   0  0  0  0  0  0  0  0  0  0  0  0
   28.3995   28.8157   34.3238 H   0  0  0  0  0  0  0  0  0  0  0  0
   26.7764   29.6381   33.2267 C   0  0  0  0  0  0  0  0  0  0  0  0
   26.3993   28.6976   32.9126 H   0  0  0  0  0  0  0  0  0  0  0  0
  1  9  1  0  0  0  0
  2  7  1  0  0  0  0
  3  4  1  0  0  0  0
  3  5  1  0  0  0  0
  3 10  2  0  0  0  0
  5  6  1  0  0  0  0
  5  7  2  0  0  0  0
  7  8  1  0  0  0  0
  8  9  2  0  0  0  0
  8 15  1  0  0  0  0
  9 10  1  0  0  0  0
 10 11  1  0  0  0  0
 12 13  1  0  0  0  0
 12 18  2  0  0  0  0
 13 14  1  0  0  0  0
 13 15  2  0  0  0  0
 15 16  1  0  0  0  0
 16 17  1  0  0  0  0
 16 18  1  0  0  0  0
 18 24  1  0  0  0  0
 19 20  1  0  0  0  0
 19 27  2  0  0  0  0
 20 21  1  0  0  0  0
 20 22  2  0  0  0  0
 22 23  1  0  0  0  0
 22 24  1  0  0  0  0
 24 25  2  0  0  0  0
 25 26  1  0  0  0  0
 25 27  1  0  0  0  0
 27 28  1  0  0  0  0
M  END
$$$$
tyk2_liang_ejmc_27
  MOE2024           3D
tyk2_liang_ejmc_27
 28 30  0  0  0  0  0  0  0  0999 V2000
   30.5840   33.2210   38.9240 Cl  0  0  0  0  0  0  0  0  0  0  0  0
   33.7164   32.3612   34.5245 Cl  0  0  0  0  0  0  0  0  0  0  0  0
   34.0850   34.8600   37.6560 C   0  0  0  0  0  0  0  0  0  0  0  0
   34.7737   35.5949   37.9914 H   0  0  0  0  0  0  0  0  0  0  0  0
   34.3220   34.1720   36.4650 C   0  0  0  0  0  0  0  0  0  0  0  0
   35.1034   34.3541   35.9461 H   0  0  0  0  0  0  0  0  0  0  0  0
   33.4110   33.2050   36.0310 C   0  0  0  0  0  0  0  0  0  0  0  0
   32.2560   32.9420   36.7670 C   0  0  0  0  0  0  0  0  0  0  0  0
   32.0430   33.6060   37.9670 C   0  0  0  0  0  0  0  0  0  0  0  0
   32.9430   34.5780   38.4090 C   0  0  0  0  0  0  0  0  0  0  0  0
   32.7571   35.0900   39.3189 H   0  0  0  0  0  0  0  0  0  0  0  0
   30.2255   30.1675   35.8945 C   0  0  0  0  0  0  0  0  0  0  0  0
   29.9463   29.1447   35.9139 H   0  0  0  0  0  0  0  0  0  0  0  0
   31.2894   30.6568   36.5637 N   0  0  0  0  0  0  0  0  0  0  0  0
   31.3114   31.9463   36.3028 C   0  0  0  0  0  0  0  0  0  0  0  0
   30.2784   32.2672   35.4842 N   0  0  0  0  0  0  0  0  0  0  0  0
   30.0858   33.2126   35.1222 H   0  0  0  0  0  0  0  0  0  0  0  0
   29.5732   31.1495   35.2101 C   0  0  0  0  0  0  0  0  0  0  0  0
   26.1618   31.0053   32.6844 N   0  0  0  0  0  0  0  0  0  0  0  0
   26.4870   32.1398   33.3009 C   0  0  0  0  0  0  0  0  0  0  0  0
   25.8688   32.9865   33.1378 H   0  0  0  0  0  0  0  0  0  0  0  0
   27.5934   32.2291   34.1357 C   0  0  0  0  0  0  0  0  0  0  0  0
   27.8098   33.1460   34.6151 H   0  0  0  0  0  0  0  0  0  0  0  0
   28.4026   31.1110   34.3493 C   0  0  0  0  0  0  0  0  0  0  0  0
   28.0310   29.9378   33.6926 C   0  0  0  0  0  0  0  0  0  0  0  0
   28.6062   29.0580   33.8144 H   0  0  0  0  0  0  0  0  0  0  0  0
   26.9119   29.9205   32.8711 C   0  0  0  0  0  0  0  0  0  0  0  0
   26.6299   29.0294   32.3689 H   0  0  0  0  0  0  0  0  0  0  0  0
  1  9  1  0  0  0  0
  2  7  1  0  0  0  0
  3  4  1  0  0  0  0
  3  5  1  0  0  0  0
  3 10  2  0  0  0  0
  5  6  1  0  0  0  0
  5  7  2  0  0  0  0
  7  8  1  0  0  0  0
  8  9  2  0  0  0  0
  8 15  1  0  0  0  0
  9 10  1  0  0  0  0
 10 11  1  0  0  0  0
 12 13  1  0  0  0  0
 12 14  1  0  0  0  0
 12 18  2  0  0  0  0
 14 15  2  0  0  0  0
 15 16  1  0  0  0  0
 16 17  1  0  0  0  0
 16 18  1  0  0  0  0
 18 24  1  0  0  0  0
 19 20  1  0  0  0  0
 19 27  2  0  0  0  0
 20 21  1  0  0  0  0
 20 22  2  0  0  0  0
 22 23  1  0  0  0  0
 22 24  1  0  0  0  0
 24 25  2  0  0  0  0
 25 26  1  0  0  0  0
 25 27  1  0  0  0  0
 27 28  1  0  0  0  0
M  END
$$$$
tyk2_liang_ejmc_28
  MOE2024           3D
tyk2_liang_ejmc_28
 27 29  0  0  0  0  0  0  0  0999 V2000
   30.5840   33.2210   38.9240 Cl  0  0  0  0  0  0  0  0  0  0  0  0
   33.7164   32.3612   34.5245 Cl  0  0  0  0  0  0  0  0  0  0  0  0
   34.0850   34.8600   37.6560 C   0  0  0  0  0  0  0  0  0  0  0  0
   34.7737   35.5949   37.9914 H   0  0  0  0  0  0  0  0  0  0  0  0
   34.3220   34.1720   36.4650 C   0  0  0  0  0  0  0  0  0  0  0  0
   35.1034   34.3541   35.9461 H   0  0  0  0  0  0  0  0  0  0  0  0
   33.4110   33.2050   36.0310 C   0  0  0  0  0  0  0  0  0  0  0  0
   32.2560   32.9420   36.7670 C   0  0  0  0  0  0  0  0  0  0  0  0
   32.0430   33.6060   37.9670 C   0  0  0  0  0  0  0  0  0  0  0  0
   32.9430   34.5780   38.4090 C   0  0  0  0  0  0  0  0  0  0  0  0
   32.7571   35.0900   39.3189 H   0  0  0  0  0  0  0  0  0  0  0  0
   30.2255   30.1675   35.8945 N   0  0  0  0  0  0  0  0  0  0  0  0
   31.2894   30.6568   36.5637 N   0  0  0  0  0  0  0  0  0  0  0  0
   31.3114   31.9463   36.3028 C   0  0  0  0  0  0  0  0  0  0  0  0
   30.2784   32.2672   35.4842 N   0  0  0  0  0  0  0  0  0  0  0  0
   30.0858   33.2126   35.1222 H   0  0  0  0  0  0  0  0  0  0  0  0
   29.5732   31.1495   35.2101 C   0  0  0  0  0  0  0  0  0  0  0  0
   26.1618   31.0053   32.6844 N   0  0  0  0  0  0  0  0  0  0  0  0
   26.4870   32.1398   33.3009 C   0  0  0  0  0  0  0  0  0  0  0  0
   25.8688   32.9865   33.1378 H   0  0  0  0  0  0  0  0  0  0  0  0
   27.5934   32.2291   34.1357 C   0  0  0  0  0  0  0  0  0  0  0  0
   27.8098   33.1460   34.6151 H   0  0  0  0  0  0  0  0  0  0  0  0
   28.4026   31.1110   34.3493 C   0  0  0  0  0  0  0  0  0  0  0  0
   28.0310   29.9378   33.6926 C   0  0  0  0  0  0  0  0  0  0  0  0
   28.6062   29.0580   33.8144 H   0  0  0  0  0  0  0  0  0  0  0  0
   26.9119   29.9205   32.8711 C   0  0  0  0  0  0  0  0  0  0  0  0
   26.6299   29.0294   32.3689 H   0  0  0  0  0  0  0  0  0  0  0  0
  1  9  1  0  0  0  0
  2  7  1  0  0  0  0
  3  4  1  0  0  0  0
  3  5  1  0  0  0  0
  3 10  2  0  0  0  0
  5  6  1  0  0  0  0
  5  7  2  0  0  0  0
  7  8  1  0  0  0  0
  8  9  2  0  0  0  0
  8 14  1  0  0  0  0
  9 10  1  0  0  0  0
 10 11  1  0  0  0  0
 12 13  1  0  0  0  0
 12 17  2  0  0  0  0
 13 14  2  0  0  0  0
 14 15  1  0  0  0  0
 15 16  1  0  0  0  0
 15 17  1  0  0  0  0
 17 23  1  0  0  0  0
 18 19  1  0  0  0  0
 18 26  2  0  0  0  0
 19 20  1  0  0  0  0
 19 21  2  0  0  0  0
 21 22  1  0  0  0  0
 21 23  1  0  0  0  0
 23 24  2  0  0  0  0
 24 25  1  0  0  0  0
 24 26  1  0  0  0  0
 26 27  1  0  0  0  0
M  END
$$$$
tyk2_liang_ejmc_29
  MOE2024           3D
tyk2_liang_ejmc_29
 27 28  0  0  0  0  0  0  0  0999 V2000
   30.5840   33.2210   38.9240 Cl  0  0  0  0  0  0  0  0  0  0  0  0
   33.7164   32.3612   34.5245 Cl  0  0  0  0  0  0  0  0  0  0  0  0
   34.0850   34.8600   37.6560 C   0  0  0  0  0  0  0  0  0  0  0  0
   34.7744   35.5943   37.9917 H   0  0  0  0  0  0  0  0  0  0  0  0
   30.4980   32.0140   35.3060 N   0  0  0  0  0  0  0  0  0  0  0  0
   30.5924   32.8961   34.7905 H   0  0  0  0  0  0  0  0  0  0  0  0
   31.3550   30.8420   37.0530 O   0  0  0  0  0  0  0  0  0  0  0  0
   34.3220   34.1720   36.4650 C   0  0  0  0  0  0  0  0  0  0  0  0
   35.1034   34.3541   35.9461 H   0  0  0  0  0  0  0  0  0  0  0  0
   27.9100   29.1780   33.5840 N   0  0  0  0  0  0  0  0  0  0  0  0
   33.4110   33.2050   36.0310 C   0  0  0  0  0  0  0  0  0  0  0  0
   32.2560   32.9420   36.7670 C   0  0  0  0  0  0  0  0  0  0  0  0
   32.0430   33.6060   37.9670 C   0  0  0  0  0  0  0  0  0  0  0  0
   32.9430   34.5780   38.4090 C   0  0  0  0  0  0  0  0  0  0  0  0
   32.7571   35.0900   39.3189 H   0  0  0  0  0  0  0  0  0  0  0  0
   31.3180   31.8470   36.3570 C   0  0  0  0  0  0  0  0  0  0  0  0
   29.6000   31.0560   34.7790 C   0  0  0  0  0  0  0  0  0  0  0  0
   29.0380   31.2910   33.5110 C   0  0  0  0  0  0  0  0  0  0  0  0
   29.2608   32.1906   33.0013 H   0  0  0  0  0  0  0  0  0  0  0  0
   28.1860   30.3280   32.9330 C   0  0  0  0  0  0  0  0  0  0  0  0
   27.7276   30.4484   31.9815 H   0  0  0  0  0  0  0  0  0  0  0  0
   28.4490   28.9090   34.8080 C   0  0  0  0  0  0  0  0  0  0  0  0
   28.1122   27.7115   35.3558 N   0  0  0  0  0  0  0  0  0  0  0  0
   28.8298   27.3128   35.9717 H   0  0  0  0  0  0  0  0  0  0  0  0
   27.7301   27.0748   34.6456 H   0  0  0  0  0  0  0  0  0  0  0  0
   29.2950   29.8410   35.4220 C   0  0  0  0  0  0  0  0  0  0  0  0
   29.6436   29.5762   36.3783 H   0  0  0  0  0  0  0  0  0  0  0  0
  1 13  1  0  0  0  0
  2 11  1  0  0  0  0
  3  4  1  0  0  0  0
  3  8  1  0  0  0  0
  3 14  2  0  0  0  0
  5  6  1  0  0  0  0
  5 16  1  0  0  0  0
  5 17  1  0  0  0  0
  7 16  2  0  0  0  0
  8  9  1  0  0  0  0
  8 11  2  0  0  0  0
 10 20  2  0  0  0  0
 10 22  1  0  0  0  0
 11 12  1  0  0  0  0
 12 13  2  0  0  0  0
 12 16  1  0  0  0  0
 13 14  1  0  0  0  0
 14 15  1  0  0  0  0
 17 18  2  0  0  0  0
 17 26  1  0  0  0  0
 18 19  1  0  0  0  0
 18 20  1  0  0  0  0
 20 21  1  0  0  0  0
 22 23  1  0  0  0  0
 22 26  2  0  0  0  0
 23 24  1  0  0  0  0
 23 25  1  0  0  0  0
 26 27  1  0  0  0  0
M  END
$$$$
tyk2_liang_ejmc_30
  MOE2024           3D
tyk2_liang_ejmc_30
 30 31  0  0  0  0  0  0  0  0999 V2000
   30.5840   33.2210   38.9240 Cl  0  0  0  0  0  0  0  0  0  0  0  0
   33.7164   32.3612   34.5245 Cl  0  0  0  0  0  0  0  0  0  0  0  0
   34.0850   34.8600   37.6560 C   0  0  0  0  0  0  0  0  0  0  0  0
   34.7744   35.5943   37.9917 H   0  0  0  0  0  0  0  0  0  0  0  0
   30.4980   32.0140   35.3060 N   0  0  0  0  0  0  0  0  0  0  0  0
   30.5924   32.8961   34.7905 H   0  0  0  0  0  0  0  0  0  0  0  0
   31.3550   30.8420   37.0530 O   0  0  0  0  0  0  0  0  0  0  0  0
   34.3220   34.1720   36.4650 C   0  0  0  0  0  0  0  0  0  0  0  0
   35.1034   34.3541   35.9461 H   0  0  0  0  0  0  0  0  0  0  0  0
   27.9100   29.1780   33.5840 N   0  0  0  0  0  0  0  0  0  0  0  0
   33.4110   33.2050   36.0310 C   0  0  0  0  0  0  0  0  0  0  0  0
   32.2560   32.9420   36.7670 C   0  0  0  0  0  0  0  0  0  0  0  0
   32.0430   33.6060   37.9670 C   0  0  0  0  0  0  0  0  0  0  0  0
   32.9430   34.5780   38.4090 C   0  0  0  0  0  0  0  0  0  0  0  0
   32.7571   35.0900   39.3189 H   0  0  0  0  0  0  0  0  0  0  0  0
   31.3180   31.8470   36.3570 C   0  0  0  0  0  0  0  0  0  0  0  0
   29.6000   31.0560   34.7790 C   0  0  0  0  0  0  0  0  0  0  0  0
   29.0380   31.2910   33.5110 C   0  0  0  0  0  0  0  0  0  0  0  0
   29.2608   32.1906   33.0013 H   0  0  0  0  0  0  0  0  0  0  0  0
   28.1860   30.3280   32.9330 C   0  0  0  0  0  0  0  0  0  0  0  0
   27.7276   30.4484   31.9815 H   0  0  0  0  0  0  0  0  0  0  0  0
   28.4490   28.9090   34.8080 C   0  0  0  0  0  0  0  0  0  0  0  0
   28.0848   27.6951   35.3332 N   0  0  0  0  0  0  0  0  0  0  0  0
   29.0392   26.9609   36.1669 C   0  0  0  0  0  0  0  0  0  0  0  0
   28.6179   25.9794   36.3894 H   0  0  0  0  0  0  0  0  0  0  0  0
   29.1970   27.5114   37.0963 H   0  0  0  0  0  0  0  0  0  0  0  0
   29.9784   26.8559   35.6201 H   0  0  0  0  0  0  0  0  0  0  0  0
   27.6102   27.1403   34.6060 H   0  0  0  0  0  0  0  0  0  0  0  0
   29.2950   29.8410   35.4220 C   0  0  0  0  0  0  0  0  0  0  0  0
   29.6436   29.5762   36.3783 H   0  0  0  0  0  0  0  0  0  0  0  0
  1 13  1  0  0  0  0
  2 11  1  0  0  0  0
  3  4  1  0  0  0  0
  3  8  1  0  0  0  0
  3 14  2  0  0  0  0
  5  6  1  0  0  0  0
  5 16  1  0  0  0  0
  5 17  1  0  0  0  0
  7 16  2  0  0  0  0
  8  9  1  0  0  0  0
  8 11  2  0  0  0  0
 10 20  2  0  0  0  0
 10 22  1  0  0  0  0
 11 12  1  0  0  0  0
 12 13  2  0  0  0  0
 12 16  1  0  0  0  0
 13 14  1  0  0  0  0
 14 15  1  0  0  0  0
 17 18  2  0  0  0  0
 17 29  1  0  0  0  0
 18 19  1  0  0  0  0
 18 20  1  0  0  0  0
 20 21  1  0  0  0  0
 22 23  1  0  0  0  0
 22 29  2  0  0  0  0
 23 24  1  0  0  0  0
 23 28  1  0  0  0  0
 24 25  1  0  0  0  0
 24 26  1  0  0  0  0
 24 27  1  0  0  0  0
 29 30  1  0  0  0  0
M  END
$$$$
tyk2_liang_ejmc_31
  MOE2024           3D
tyk2_liang_ejmc_31
 32 33  0  0  0  0  0  0  0  0999 V2000
   30.5840   33.2210   38.9240 Cl  0  0  0  0  0  0  0  0  0  0  0  0
   33.7164   32.3612   34.5245 Cl  0  0  0  0  0  0  0  0  0  0  0  0
   34.0850   34.8600   37.6560 C   0  0  0  0  0  0  0  0  0  0  0  0
   34.7744   35.5943   37.9917 H   0  0  0  0  0  0  0  0  0  0  0  0
   30.5089   31.9379   35.2387 N   0  0  0  0  0  0  0  0  0  0  0  0
   30.6682   32.7481   34.6270 H   0  0  0  0  0  0  0  0  0  0  0  0
   31.3550   30.8420   37.0530 O   0  0  0  0  0  0  0  0  0  0  0  0
   34.3220   34.1720   36.4650 C   0  0  0  0  0  0  0  0  0  0  0  0
   35.1034   34.3541   35.9461 H   0  0  0  0  0  0  0  0  0  0  0  0
   27.8116   29.0535   33.8459 N   0  0  0  0  0  0  0  0  0  0  0  0
   33.4110   33.2050   36.0310 C   0  0  0  0  0  0  0  0  0  0  0  0
   32.2560   32.9420   36.7670 C   0  0  0  0  0  0  0  0  0  0  0  0
   32.0430   33.6060   37.9670 C   0  0  0  0  0  0  0  0  0  0  0  0
   32.9430   34.5780   38.4090 C   0  0  0  0  0  0  0  0  0  0  0  0
   32.7571   35.0900   39.3189 H   0  0  0  0  0  0  0  0  0  0  0  0
   31.3180   31.8470   36.3570 C   0  0  0  0  0  0  0  0  0  0  0  0
   29.5932   30.9583   34.8032 C   0  0  0  0  0  0  0  0  0  0  0  0
   29.3532   30.8298   33.4371 C   0  0  0  0  0  0  0  0  0  0  0  0
   29.8525   31.4499   32.7405 H   0  0  0  0  0  0  0  0  0  0  0  0
   28.4507   29.8667   33.0002 C   0  0  0  0  0  0  0  0  0  0  0  0
   28.2524   29.7557   31.9637 H   0  0  0  0  0  0  0  0  0  0  0  0
   28.0547   29.1747   35.1500 C   0  0  0  0  0  0  0  0  0  0  0  0
   27.3517   28.2708   35.9291 N   0  0  0  0  0  0  0  0  0  0  0  0
   27.7912   27.5584   36.9974 C   0  0  0  0  0  0  0  0  0  0  0  0
   29.2175   27.6130   37.4879 C   0  0  0  0  0  0  0  0  0  0  0  0
   29.8689   27.6515   36.6271 H   0  0  0  0  0  0  0  0  0  0  0  0
   29.3827   26.7159   38.0665 H   0  0  0  0  0  0  0  0  0  0  0  0
   29.3120   28.4926   38.1059 H   0  0  0  0  0  0  0  0  0  0  0  0
   26.4211   28.0077   35.5904 H   0  0  0  0  0  0  0  0  0  0  0  0
   28.9121   30.1315   35.6850 C   0  0  0  0  0  0  0  0  0  0  0  0
   29.0256   30.2347   36.7292 H   0  0  0  0  0  0  0  0  0  0  0  0
   26.9657   26.8519   37.5252 O   0  0  0  0  0  0  0  0  0  0  0  0
  1 13  1  0  0  0  0
  2 11  1  0  0  0  0
  3  4  1  0  0  0  0
  3  8  1  0  0  0  0
  3 14  2  0  0  0  0
  5  6  1  0  0  0  0
  5 16  1  0  0  0  0
  5 17  1  0  0  0  0
  7 16  2  0  0  0  0
  8  9  1  0  0  0  0
  8 11  2  0  0  0  0
 10 20  2  0  0  0  0
 10 22  1  0  0  0  0
 11 12  1  0  0  0  0
 12 13  2  0  0  0  0
 12 16  1  0  0  0  0
 13 14  1  0  0  0  0
 14 15  1  0  0  0  0
 17 18  2  0  0  0  0
 17 30  1  0  0  0  0
 18 19  1  0  0  0  0
 18 20  1  0  0  0  0
 20 21  1  0  0  0  0
 22 23  1  0  0  0  0
 22 30  2  0  0  0  0
 23 24  1  0  0  0  0
 23 29  1  0  0  0  0
 24 25  1  0  0  0  0
 24 32  2  0  0  0  0
 25 26  1  0  0  0  0
 25 27  1  0  0  0  0
 25 28  1  0  0  0  0
 30 31  1  0  0  0  0
M  END
$$$$
tyk2_liang_ejmc_32
  MOE2024           3D
tyk2_liang_ejmc_32
 32 33  0  0  0  0  0  0  0  0999 V2000
   30.5840   33.2210   38.9240 Cl  0  0  0  0  0  0  0  0  0  0  0  0
   33.7164   32.3612   34.5245 Cl  0  0  0  0  0  0  0  0  0  0  0  0
   34.0850   34.8600   37.6560 C   0  0  0  0  0  0  0  0  0  0  0  0
   34.7744   35.5943   37.9917 H   0  0  0  0  0  0  0  0  0  0  0  0
   30.5089   31.9379   35.2387 N   0  0  0  0  0  0  0  0  0  0  0  0
   30.6682   32.7481   34.6270 H   0  0  0  0  0  0  0  0  0  0  0  0
   31.3550   30.8420   37.0530 O   0  0  0  0  0  0  0  0  0  0  0  0
   34.3220   34.1720   36.4650 C   0  0  0  0  0  0  0  0  0  0  0  0
   35.1034   34.3541   35.9461 H   0  0  0  0  0  0  0  0  0  0  0  0
   27.8116   29.0535   33.8459 N   0  0  0  0  0  0  0  0  0  0  0  0
   33.4110   33.2050   36.0310 C   0  0  0  0  0  0  0  0  0  0  0  0
   32.2560   32.9420   36.7670 C   0  0  0  0  0  0  0  0  0  0  0  0
   32.0430   33.6060   37.9670 C   0  0  0  0  0  0  0  0  0  0  0  0
   32.9430   34.5780   38.4090 C   0  0  0  0  0  0  0  0  0  0  0  0
   32.7571   35.0900   39.3189 H   0  0  0  0  0  0  0  0  0  0  0  0
   31.3180   31.8470   36.3570 C   0  0  0  0  0  0  0  0  0  0  0  0
   29.5932   30.9583   34.8032 C   0  0  0  0  0  0  0  0  0  0  0  0
   29.3532   30.8298   33.4371 C   0  0  0  0  0  0  0  0  0  0  0  0
   29.8525   31.4499   32.7405 H   0  0  0  0  0  0  0  0  0  0  0  0
   28.4507   29.8667   33.0002 C   0  0  0  0  0  0  0  0  0  0  0  0
   28.2524   29.7557   31.9637 H   0  0  0  0  0  0  0  0  0  0  0  0
   28.0547   29.1747   35.1500 C   0  0  0  0  0  0  0  0  0  0  0  0
   27.3517   28.2708   35.9291 N   0  0  0  0  0  0  0  0  0  0  0  0
   27.7912   27.5584   36.9974 S   0  0  0  0  0  0  0  0  0  0  0  0
   29.2175   27.6130   37.4879 C   0  0  0  0  0  0  0  0  0  0  0  0
   29.8689   27.6515   36.6271 H   0  0  0  0  0  0  0  0  0  0  0  0
   29.3827   26.7159   38.0665 H   0  0  0  0  0  0  0  0  0  0  0  0
   29.3120   28.4926   38.1059 H   0  0  0  0  0  0  0  0  0  0  0  0
   26.4211   28.0077   35.5904 H   0  0  0  0  0  0  0  0  0  0  0  0
   28.9121   30.1315   35.6850 C   0  0  0  0  0  0  0  0  0  0  0  0
   29.0256   30.2347   36.7292 H   0  0  0  0  0  0  0  0  0  0  0  0
   26.9657   26.8519   37.5252 O   0  0  0  0  0  0  0  0  0  0  0  0
  1 13  1  0  0  0  0
  2 11  1  0  0  0  0
  3  4  1  0  0  0  0
  3  8  1  0  0  0  0
  3 14  2  0  0  0  0
  5  6  1  0  0  0  0
  5 16  1  0  0  0  0
  5 17  1  0  0  0  0
  7 16  2  0  0  0  0
  8  9  1  0  0  0  0
  8 11  2  0  0  0  0
 10 20  2  0  0  0  0
 10 22  1  0  0  0  0
 11 12  1  0  0  0  0
 12 13  2  0  0  0  0
 12 16  1  0  0  0  0
 13 14  1  0  0  0  0
 14 15  1  0  0  0  0
 17 18  2  0  0  0  0
 17 30  1  0  0  0  0
 18 19  1  0  0  0  0
 18 20  1  0  0  0  0
 20 21  1  0  0  0  0
 22 23  1  0  0  0  0
 22 30  2  0  0  0  0
 23 24  1  0  0  0  0
 23 29  1  0  0  0  0
 24 25  1  0  0  0  0
 24 32  2  0  0  0  0
 25 26  1  0  0  0  0
 25 27  1  0  0  0  0
 25 28  1  0  0  0  0
 30 31  1  0  0  0  0
M  END
$$$$
tyk2_liang_ejmc_33
  MOE2024           3D
tyk2_liang_ejmc_33
 37 39  0  0  0  0  0  0  0  0999 V2000
   30.5840   33.2210   38.9240 Cl  0  0  0  0  0  0  0  0  0  0  0  0
   33.7230   32.3430   34.4920 Cl  0  0  0  0  0  0  0  0  0  0  0  0
   34.0850   34.8600   37.6560 C   0  0  0  0  0  0  0  0  0  0  0  0
   34.7744   35.5943   37.9917 H   0  0  0  0  0  0  0  0  0  0  0  0
   30.5037   31.9484   35.2442 N   0  0  0  0  0  0  0  0  0  0  0  0
   30.6629   32.7656   34.6429 H   0  0  0  0  0  0  0  0  0  0  0  0
   31.3550   30.8420   37.0530 O   0  0  0  0  0  0  0  0  0  0  0  0
   34.3220   34.1720   36.4650 C   0  0  0  0  0  0  0  0  0  0  0  0
   35.1893   34.3741   35.8891 H   0  0  0  0  0  0  0  0  0  0  0  0
   27.7183   29.1754   33.8042 N   0  0  0  0  0  0  0  0  0  0  0  0
   27.3577   28.3252   35.9738 N   0  0  0  0  0  0  0  0  0  0  0  0
   27.8332   28.1742   36.8696 H   0  0  0  0  0  0  0  0  0  0  0  0
   33.4110   33.2050   36.0310 C   0  0  0  0  0  0  0  0  0  0  0  0
   32.2560   32.9420   36.7670 C   0  0  0  0  0  0  0  0  0  0  0  0
   32.0430   33.6060   37.9670 C   0  0  0  0  0  0  0  0  0  0  0  0
   32.9430   34.5780   38.4090 C   0  0  0  0  0  0  0  0  0  0  0  0
   32.7571   35.0900   39.3189 H   0  0  0  0  0  0  0  0  0  0  0  0
   31.3180   31.8470   36.3570 C   0  0  0  0  0  0  0  0  0  0  0  0
   29.5630   30.9936   34.8000 C   0  0  0  0  0  0  0  0  0  0  0  0
   29.2740   30.9442   33.4382 C   0  0  0  0  0  0  0  0  0  0  0  0
   29.7578   31.5943   32.7589 H   0  0  0  0  0  0  0  0  0  0  0  0
   28.3453   30.0175   32.9822 C   0  0  0  0  0  0  0  0  0  0  0  0
   28.1145   29.9594   31.9484 H   0  0  0  0  0  0  0  0  0  0  0  0
   27.9907   29.2245   35.1142 C   0  0  0  0  0  0  0  0  0  0  0  0
   28.9045   30.1236   35.6583 C   0  0  0  0  0  0  0  0  0  0  0  0
   29.0782   30.1396   36.7000 H   0  0  0  0  0  0  0  0  0  0  0  0
   24.1112   25.7781   35.2335 C   0  0  0  0  0  0  0  0  0  0  0  0
   23.2935   25.1274   35.0564 H   0  0  0  0  0  0  0  0  0  0  0  0
   25.1531   25.3776   36.0685 C   0  0  0  0  0  0  0  0  0  0  0  0
   25.1255   24.4218   36.5253 H   0  0  0  0  0  0  0  0  0  0  0  0
   26.2294   26.2282   36.3006 C   0  0  0  0  0  0  0  0  0  0  0  0
   27.0235   25.9244   36.9306 H   0  0  0  0  0  0  0  0  0  0  0  0
   26.2614   27.4831   35.6898 C   0  0  0  0  0  0  0  0  0  0  0  0
   25.2157   27.8916   34.8578 C   0  0  0  0  0  0  0  0  0  0  0  0
   25.2392   28.8491   34.4075 H   0  0  0  0  0  0  0  0  0  0  0  0
   24.1444   27.0343   34.6300 C   0  0  0  0  0  0  0  0  0  0  0  0
   23.3520   27.3380   33.9955 H   0  0  0  0  0  0  0  0  0  0  0  0
  1 15  1  0  0  0  0
  2 13  1  0  0  0  0
  3  4  1  0  0  0  0
  3  8  1  0  0  0  0
  3 16  2  0  0  0  0
  5  6  1  0  0  0  0
  5 18  1  0  0  0  0
  5 19  1  0  0  0  0
  7 18  2  0  0  0  0
  8  9  1  0  0  0  0
  8 13  2  0  0  0  0
 10 22  2  0  0  0  0
 10 24  1  0  0  0  0
 11 12  1  0  0  0  0
 11 24  1  0  0  0  0
 11 33  1  0  0  0  0
 13 14  1  0  0  0  0
 14 15  2  0  0  0  0
 14 18  1  0  0  0  0
 15 16  1  0  0  0  0
 16 17  1  0  0  0  0
 19 20  2  0  0  0  0
 19 25  1  0  0  0  0
 20 21  1  0  0  0  0
 20 22  1  0  0  0  0
 22 23  1  0  0  0  0
 24 25  2  0  0  0  0
 25 26  1  0  0  0  0
 27 28  1  0  0  0  0
 27 29  1  0  0  0  0
 27 36  2  0  0  0  0
 29 30  1  0  0  0  0
 29 31  2  0  0  0  0
 31 32  1  0  0  0  0
 31 33  1  0  0  0  0
 33 34  2  0  0  0  0
 34 35  1  0  0  0  0
 34 36  1  0  0  0  0
 36 37  1  0  0  0  0
M  END
$$$$
tyk2_liang_ejmc_34
  MOE2024           3D
tyk2_liang_ejmc_34
 36 38  0  0  0  0  0  0  0  0999 V2000
   30.5840   33.2210   38.9240 Cl  0  0  0  0  0  0  0  0  0  0  0  0
   33.7230   32.3430   34.4920 Cl  0  0  0  0  0  0  0  0  0  0  0  0
   34.0850   34.8600   37.6560 C   0  0  0  0  0  0  0  0  0  0  0  0
   34.7744   35.5943   37.9917 H   0  0  0  0  0  0  0  0  0  0  0  0
   30.5095   31.9633   35.2408 N   0  0  0  0  0  0  0  0  0  0  0  0
   30.6375   32.8232   34.6948 H   0  0  0  0  0  0  0  0  0  0  0  0
   31.3550   30.8420   37.0530 O   0  0  0  0  0  0  0  0  0  0  0  0
   34.3220   34.1720   36.4650 C   0  0  0  0  0  0  0  0  0  0  0  0
   35.1893   34.3741   35.8891 H   0  0  0  0  0  0  0  0  0  0  0  0
   27.8924   29.2034   33.4892 N   0  0  0  0  0  0  0  0  0  0  0  0
   27.7178   27.9892   35.4965 N   0  0  0  0  0  0  0  0  0  0  0  0
   27.7171   28.0780   36.5159 H   0  0  0  0  0  0  0  0  0  0  0  0
   33.4110   33.2050   36.0310 C   0  0  0  0  0  0  0  0  0  0  0  0
   32.2560   32.9420   36.7670 C   0  0  0  0  0  0  0  0  0  0  0  0
   32.0430   33.6060   37.9670 C   0  0  0  0  0  0  0  0  0  0  0  0
   32.9430   34.5780   38.4090 C   0  0  0  0  0  0  0  0  0  0  0  0
   32.7571   35.0900   39.3189 H   0  0  0  0  0  0  0  0  0  0  0  0
   31.3180   31.8470   36.3570 C   0  0  0  0  0  0  0  0  0  0  0  0
   29.6257   31.0011   34.7021 C   0  0  0  0  0  0  0  0  0  0  0  0
   29.2557   31.1535   33.3676 C   0  0  0  0  0  0  0  0  0  0  0  0
   29.6328   31.9550   32.7900 H   0  0  0  0  0  0  0  0  0  0  0  0
   28.3862   30.2318   32.7999 C   0  0  0  0  0  0  0  0  0  0  0  0
   28.0935   30.3315   31.7851 H   0  0  0  0  0  0  0  0  0  0  0  0
   28.2454   29.0534   34.7709 C   0  0  0  0  0  0  0  0  0  0  0  0
   29.1026   29.9356   35.4241 C   0  0  0  0  0  0  0  0  0  0  0  0
   29.3356   29.7859   36.4428 H   0  0  0  0  0  0  0  0  0  0  0  0
   25.6078   24.6339   34.4931 C   0  0  0  0  0  0  0  0  0  0  0  0
   25.0325   23.7643   34.3092 H   0  0  0  0  0  0  0  0  0  0  0  0
   26.3801   25.1922   33.4803 C   0  0  0  0  0  0  0  0  0  0  0  0
   26.4106   24.7590   32.5133 H   0  0  0  0  0  0  0  0  0  0  0  0
   27.1115   26.3301   33.7733 C   0  0  0  0  0  0  0  0  0  0  0  0
   27.7252   26.7784   33.0394 H   0  0  0  0  0  0  0  0  0  0  0  0
   27.0331   26.8701   35.0629 C   0  0  0  0  0  0  0  0  0  0  0  0
   26.3033   26.3204   36.0327 N   0  0  0  0  0  0  0  0  0  0  0  0
   25.5978   25.2241   35.7549 C   0  0  0  0  0  0  0  0  0  0  0  0
   25.0154   24.8004   36.5333 H   0  0  0  0  0  0  0  0  0  0  0  0
  1 15  1  0  0  0  0
  2 13  1  0  0  0  0
  3  4  1  0  0  0  0
  3  8  1  0  0  0  0
  3 16  2  0  0  0  0
  5  6  1  0  0  0  0
  5 18  1  0  0  0  0
  5 19  1  0  0  0  0
  7 18  2  0  0  0  0
  8  9  1  0  0  0  0
  8 13  2  0  0  0  0
 10 22  2  0  0  0  0
 10 24  1  0  0  0  0
 11 12  1  0  0  0  0
 11 24  1  0  0  0  0
 11 33  1  0  0  0  0
 13 14  1  0  0  0  0
 14 15  2  0  0  0  0
 14 18  1  0  0  0  0
 15 16  1  0  0  0  0
 16 17  1  0  0  0  0
 19 20  2  0  0  0  0
 19 25  1  0  0  0  0
 20 21  1  0  0  0  0
 20 22  1  0  0  0  0
 22 23  1  0  0  0  0
 24 25  2  0  0  0  0
 25 26  1  0  0  0  0
 27 28  1  0  0  0  0
 27 29  1  0  0  0  0
 27 35  2  0  0  0  0
 29 30  1  0  0  0  0
 29 31  2  0  0  0  0
 31 32  1  0  0  0  0
 31 33  1  0  0  0  0
 33 34  2  0  0  0  0
 34 35  1  0  0  0  0
 35 36  1  0  0  0  0
M  END
$$$$
tyk2_liang_ejmc_35
  MOE2024           3D
tyk2_liang_ejmc_35
 35 37  0  0  0  0  0  0  0  0999 V2000
   30.5840   33.2210   38.9240 Cl  0  0  0  0  0  0  0  0  0  0  0  0
   33.7230   32.3430   34.4920 Cl  0  0  0  0  0  0  0  0  0  0  0  0
   34.0850   34.8600   37.6560 C   0  0  0  0  0  0  0  0  0  0  0  0
   34.7744   35.5943   37.9917 H   0  0  0  0  0  0  0  0  0  0  0  0
   30.5041   31.9709   35.2458 N   0  0  0  0  0  0  0  0  0  0  0  0
   30.6592   32.8153   34.6830 H   0  0  0  0  0  0  0  0  0  0  0  0
   31.3550   30.8420   37.0530 O   0  0  0  0  0  0  0  0  0  0  0  0
   34.3220   34.1720   36.4650 C   0  0  0  0  0  0  0  0  0  0  0  0
   35.1893   34.3741   35.8891 H   0  0  0  0  0  0  0  0  0  0  0  0
   27.6278   29.3875   33.6380 N   0  0  0  0  0  0  0  0  0  0  0  0
   27.4747   28.1847   35.6431 N   0  0  0  0  0  0  0  0  0  0  0  0
   27.3652   28.3262   36.6462 H   0  0  0  0  0  0  0  0  0  0  0  0
   33.4110   33.2050   36.0310 C   0  0  0  0  0  0  0  0  0  0  0  0
   32.2560   32.9420   36.7670 C   0  0  0  0  0  0  0  0  0  0  0  0
   32.0430   33.6060   37.9670 C   0  0  0  0  0  0  0  0  0  0  0  0
   32.9430   34.5780   38.4090 C   0  0  0  0  0  0  0  0  0  0  0  0
   32.7571   35.0900   39.3189 H   0  0  0  0  0  0  0  0  0  0  0  0
   31.3180   31.8470   36.3570 C   0  0  0  0  0  0  0  0  0  0  0  0
   29.5467   31.0562   34.7516 C   0  0  0  0  0  0  0  0  0  0  0  0
   29.1187   31.2333   33.4373 C   0  0  0  0  0  0  0  0  0  0  0  0
   29.5188   32.0068   32.8378 H   0  0  0  0  0  0  0  0  0  0  0  0
   28.1569   30.3757   32.9195 C   0  0  0  0  0  0  0  0  0  0  0  0
   27.8171   30.4949   31.9218 H   0  0  0  0  0  0  0  0  0  0  0  0
   28.0478   29.2037   34.8937 C   0  0  0  0  0  0  0  0  0  0  0  0
   28.9986   30.0215   35.4999 C   0  0  0  0  0  0  0  0  0  0  0  0
   29.2806   29.8489   36.5023 H   0  0  0  0  0  0  0  0  0  0  0  0
   25.9440   24.6450   34.5459 C   0  0  0  0  0  0  0  0  0  0  0  0
   25.5274   23.7104   34.2777 H   0  0  0  0  0  0  0  0  0  0  0  0
   26.8164   25.3003   33.6914 C   0  0  0  0  0  0  0  0  0  0  0  0
   27.0862   24.8802   32.7553 H   0  0  0  0  0  0  0  0  0  0  0  0
   27.3295   26.4656   34.0342 N   0  0  0  0  0  0  0  0  0  0  0  0
   26.9734   26.9923   35.2095 C   0  0  0  0  0  0  0  0  0  0  0  0
   26.1547   26.4072   36.0855 N   0  0  0  0  0  0  0  0  0  0  0  0
   25.6320   25.2379   35.7596 C   0  0  0  0  0  0  0  0  0  0  0  0
   24.9725   24.7650   36.4431 H   0  0  0  0  0  0  0  0  0  0  0  0
  1 15  1  0  0  0  0
  2 13  1  0  0  0  0
  3  4  1  0  0  0  0
  3  8  1  0  0  0  0
  3 16  2  0  0  0  0
  5  6  1  0  0  0  0
  5 18  1  0  0  0  0
  5 19  1  0  0  0  0
  7 18  2  0  0  0  0
  8  9  1  0  0  0  0
  8 13  2  0  0  0  0
 10 22  2  0  0  0  0
 10 24  1  0  0  0  0
 11 12  1  0  0  0  0
 11 24  1  0  0  0  0
 11 32  1  0  0  0  0
 13 14  1  0  0  0  0
 14 15  2  0  0  0  0
 14 18  1  0  0  0  0
 15 16  1  0  0  0  0
 16 17  1  0  0  0  0
 19 20  2  0  0  0  0
 19 25  1  0  0  0  0
 20 21  1  0  0  0  0
 20 22  1  0  0  0  0
 22 23  1  0  0  0  0
 24 25  2  0  0  0  0
 25 26  1  0  0  0  0
 27 28  1  0  0  0  0
 27 29  1  0  0  0  0
 27 34  2  0  0  0  0
 29 30  1  0  0  0  0
 29 31  2  0  0  0  0
 31 32  1  0  0  0  0
 32 33  2  0  0  0  0
 33 34  1  0  0  0  0
 34 35  1  0  0  0  0
M  END
$$$$
tyk2_liang_ejmc_36
  MOE2024           3D
tyk2_liang_ejmc_36
 35 37  0  0  0  0  0  0  0  0999 V2000
   30.5840   33.2210   38.9240 Cl  0  0  0  0  0  0  0  0  0  0  0  0
   33.7230   32.3430   34.4920 Cl  0  0  0  0  0  0  0  0  0  0  0  0
   34.0850   34.8600   37.6560 C   0  0  0  0  0  0  0  0  0  0  0  0
   34.7744   35.5943   37.9917 H   0  0  0  0  0  0  0  0  0  0  0  0
   30.5181   31.9485   35.2335 N   0  0  0  0  0  0  0  0  0  0  0  0
   30.6552   32.7928   34.6653 H   0  0  0  0  0  0  0  0  0  0  0  0
   31.3550   30.8420   37.0530 O   0  0  0  0  0  0  0  0  0  0  0  0
   34.3220   34.1720   36.4650 C   0  0  0  0  0  0  0  0  0  0  0  0
   35.1893   34.3741   35.8891 H   0  0  0  0  0  0  0  0  0  0  0  0
   27.9606   29.0940   33.5514 N   0  0  0  0  0  0  0  0  0  0  0  0
   27.6206   28.0719   35.6371 N   0  0  0  0  0  0  0  0  0  0  0  0
   27.6051   28.2204   36.6504 H   0  0  0  0  0  0  0  0  0  0  0  0
   33.4110   33.2050   36.0310 C   0  0  0  0  0  0  0  0  0  0  0  0
   32.2560   32.9420   36.7670 C   0  0  0  0  0  0  0  0  0  0  0  0
   32.0430   33.6060   37.9670 C   0  0  0  0  0  0  0  0  0  0  0  0
   32.9430   34.5780   38.4090 C   0  0  0  0  0  0  0  0  0  0  0  0
   32.7571   35.0900   39.3189 H   0  0  0  0  0  0  0  0  0  0  0  0
   31.3180   31.8470   36.3570 C   0  0  0  0  0  0  0  0  0  0  0  0
   29.6516   30.9629   34.7131 C   0  0  0  0  0  0  0  0  0  0  0  0
   29.3782   30.9993   33.3477 C   0  0  0  0  0  0  0  0  0  0  0  0
   29.8158   31.7363   32.7281 H   0  0  0  0  0  0  0  0  0  0  0  0
   28.5264   30.0452   32.8067 C   0  0  0  0  0  0  0  0  0  0  0  0
   28.3070   30.0558   31.7687 H   0  0  0  0  0  0  0  0  0  0  0  0
   28.2218   29.0580   34.8617 C   0  0  0  0  0  0  0  0  0  0  0  0
   29.0539   29.9800   35.4909 C   0  0  0  0  0  0  0  0  0  0  0  0
   29.2159   29.9242   36.5332 H   0  0  0  0  0  0  0  0  0  0  0  0
   25.5295   24.7428   34.7024 C   0  0  0  0  0  0  0  0  0  0  0  0
   24.9587   23.8697   34.5155 H   0  0  0  0  0  0  0  0  0  0  0  0
   26.2782   25.2264   33.7053 N   0  0  0  0  0  0  0  0  0  0  0  0
   26.9781   26.3280   33.9767 C   0  0  0  0  0  0  0  0  0  0  0  0
   27.5920   26.7291   33.2153 H   0  0  0  0  0  0  0  0  0  0  0  0
   26.9209   26.9402   35.2482 C   0  0  0  0  0  0  0  0  0  0  0  0
   26.1872   26.4506   36.2460 N   0  0  0  0  0  0  0  0  0  0  0  0
   25.4895   25.3508   35.9596 C   0  0  0  0  0  0  0  0  0  0  0  0
   24.8875   24.9334   36.7254 H   0  0  0  0  0  0  0  0  0  0  0  0
  1 15  1  0  0  0  0
  2 13  1  0  0  0  0
  3  4  1  0  0  0  0
  3  8  1  0  0  0  0
  3 16  2  0  0  0  0
  5  6  1  0  0  0  0
  5 18  1  0  0  0  0
  5 19  1  0  0  0  0
  7 18  2  0  0  0  0
  8  9  1  0  0  0  0
  8 13  2  0  0  0  0
 10 22  2  0  0  0  0
 10 24  1  0  0  0  0
 11 12  1  0  0  0  0
 11 24  1  0  0  0  0
 11 32  1  0  0  0  0
 13 14  1  0  0  0  0
 14 15  2  0  0  0  0
 14 18  1  0  0  0  0
 15 16  1  0  0  0  0
 16 17  1  0  0  0  0
 19 20  2  0  0  0  0
 19 25  1  0  0  0  0
 20 21  1  0  0  0  0
 20 22  1  0  0  0  0
 22 23  1  0  0  0  0
 24 25  2  0  0  0  0
 25 26  1  0  0  0  0
 27 28  1  0  0  0  0
 27 29  1  0  0  0  0
 27 34  2  0  0  0  0
 29 30  2  0  0  0  0
 30 31  1  0  0  0  0
 30 32  1  0  0  0  0
 32 33  2  0  0  0  0
 33 34  1  0  0  0  0
 34 35  1  0  0  0  0
M  END
$$$$
tyk2_liang_ejmc_37
  MOE2024           3D
tyk2_liang_ejmc_37
 35 37  0  0  0  0  0  0  0  0999 V2000
   30.5840   33.2210   38.9240 Cl  0  0  0  0  0  0  0  0  0  0  0  0
   33.7230   32.3430   34.4920 Cl  0  0  0  0  0  0  0  0  0  0  0  0
   34.0850   34.8600   37.6560 C   0  0  0  0  0  0  0  0  0  0  0  0
   34.7744   35.5943   37.9917 H   0  0  0  0  0  0  0  0  0  0  0  0
   30.5026   31.9557   35.2445 N   0  0  0  0  0  0  0  0  0  0  0  0
   30.6295   32.8078   34.6856 H   0  0  0  0  0  0  0  0  0  0  0  0
   31.3550   30.8420   37.0530 O   0  0  0  0  0  0  0  0  0  0  0  0
   34.3220   34.1720   36.4650 C   0  0  0  0  0  0  0  0  0  0  0  0
   35.1893   34.3741   35.8891 H   0  0  0  0  0  0  0  0  0  0  0  0
   27.8833   29.1481   33.5699 N   0  0  0  0  0  0  0  0  0  0  0  0
   27.6773   28.0181   35.6176 N   0  0  0  0  0  0  0  0  0  0  0  0
   27.7290   28.1123   36.6362 H   0  0  0  0  0  0  0  0  0  0  0  0
   33.4110   33.2050   36.0310 C   0  0  0  0  0  0  0  0  0  0  0  0
   32.2560   32.9420   36.7670 C   0  0  0  0  0  0  0  0  0  0  0  0
   32.0430   33.6060   37.9670 C   0  0  0  0  0  0  0  0  0  0  0  0
   32.9430   34.5780   38.4090 C   0  0  0  0  0  0  0  0  0  0  0  0
   32.7571   35.0900   39.3189 H   0  0  0  0  0  0  0  0  0  0  0  0
   31.3180   31.8470   36.3570 C   0  0  0  0  0  0  0  0  0  0  0  0
   29.6146   30.9837   34.7295 C   0  0  0  0  0  0  0  0  0  0  0  0
   29.2636   31.0829   33.3849 C   0  0  0  0  0  0  0  0  0  0  0  0
   29.6558   31.8563   32.7794 H   0  0  0  0  0  0  0  0  0  0  0  0
   28.3941   30.1443   32.8447 C   0  0  0  0  0  0  0  0  0  0  0  0
   28.1159   30.2037   31.8225 H   0  0  0  0  0  0  0  0  0  0  0  0
   28.2180   29.0515   34.8598 C   0  0  0  0  0  0  0  0  0  0  0  0
   29.0705   29.9550   35.4882 C   0  0  0  0  0  0  0  0  0  0  0  0
   29.2858   29.8490   36.5163 H   0  0  0  0  0  0  0  0  0  0  0  0
   25.6837   24.6334   34.6687 N   0  0  0  0  0  0  0  0  0  0  0  0
   26.3101   25.2139   33.6397 C   0  0  0  0  0  0  0  0  0  0  0  0
   26.2796   24.7967   32.6440 H   0  0  0  0  0  0  0  0  0  0  0  0
   26.9743   26.3370   33.9130 C   0  0  0  0  0  0  0  0  0  0  0  0
   27.4915   26.8136   33.1241 H   0  0  0  0  0  0  0  0  0  0  0  0
   27.0046   26.8731   35.2197 C   0  0  0  0  0  0  0  0  0  0  0  0
   26.3916   26.2882   36.2471 N   0  0  0  0  0  0  0  0  0  0  0  0
   25.7284   25.1678   35.9588 C   0  0  0  0  0  0  0  0  0  0  0  0
   25.2219   24.6754   36.7487 H   0  0  0  0  0  0  0  0  0  0  0  0
  1 15  1  0  0  0  0
  2 13  1  0  0  0  0
  3  4  1  0  0  0  0
  3  8  1  0  0  0  0
  3 16  2  0  0  0  0
  5  6  1  0  0  0  0
  5 18  1  0  0  0  0
  5 19  1  0  0  0  0
  7 18  2  0  0  0  0
  8  9  1  0  0  0  0
  8 13  2  0  0  0  0
 10 22  2  0  0  0  0
 10 24  1  0  0  0  0
 11 12  1  0  0  0  0
 11 24  1  0  0  0  0
 11 32  1  0  0  0  0
 13 14  1  0  0  0  0
 14 15  2  0  0  0  0
 14 18  1  0  0  0  0
 15 16  1  0  0  0  0
 16 17  1  0  0  0  0
 19 20  2  0  0  0  0
 19 25  1  0  0  0  0
 20 21  1  0  0  0  0
 20 22  1  0  0  0  0
 22 23  1  0  0  0  0
 24 25  2  0  0  0  0
 25 26  1  0  0  0  0
 27 28  1  0  0  0  0
 27 34  2  0  0  0  0
 28 29  1  0  0  0  0
 28 30  2  0  0  0  0
 30 31  1  0  0  0  0
 30 32  1  0  0  0  0
 32 33  2  0  0  0  0
 33 34  1  0  0  0  0
 34 35  1  0  0  0  0
M  END
$$$$
tyk2_liang_ejmc_38
  MOE2024           3D
tyk2_liang_ejmc_38
 35 37  0  0  0  0  0  0  0  0999 V2000
   30.5840   33.2210   38.9240 Cl  0  0  0  0  0  0  0  0  0  0  0  0
   33.7230   32.3430   34.4920 Cl  0  0  0  0  0  0  0  0  0  0  0  0
   34.0850   34.8600   37.6560 C   0  0  0  0  0  0  0  0  0  0  0  0
   34.7744   35.5943   37.9917 H   0  0  0  0  0  0  0  0  0  0  0  0
   30.5131   31.9519   35.2371 N   0  0  0  0  0  0  0  0  0  0  0  0
   30.6501   32.7985   34.6721 H   0  0  0  0  0  0  0  0  0  0  0  0
   31.3550   30.8420   37.0530 O   0  0  0  0  0  0  0  0  0  0  0  0
   34.3220   34.1720   36.4650 C   0  0  0  0  0  0  0  0  0  0  0  0
   35.1893   34.3741   35.8891 H   0  0  0  0  0  0  0  0  0  0  0  0
   27.8989   29.1442   33.5587 N   0  0  0  0  0  0  0  0  0  0  0  0
   27.6249   28.0617   35.6286 N   0  0  0  0  0  0  0  0  0  0  0  0
   27.6067   28.2150   36.6417 H   0  0  0  0  0  0  0  0  0  0  0  0
   33.4110   33.2050   36.0310 C   0  0  0  0  0  0  0  0  0  0  0  0
   32.2560   32.9420   36.7670 C   0  0  0  0  0  0  0  0  0  0  0  0
   32.0430   33.6060   37.9670 C   0  0  0  0  0  0  0  0  0  0  0  0
   32.9430   34.5780   38.4090 C   0  0  0  0  0  0  0  0  0  0  0  0
   32.7571   35.0900   39.3189 H   0  0  0  0  0  0  0  0  0  0  0  0
   31.3180   31.8470   36.3570 C   0  0  0  0  0  0  0  0  0  0  0  0
   29.6300   30.9778   34.7195 C   0  0  0  0  0  0  0  0  0  0  0  0
   29.3109   31.0546   33.3656 C   0  0  0  0  0  0  0  0  0  0  0  0
   29.7274   31.8104   32.7542 H   0  0  0  0  0  0  0  0  0  0  0  0
   28.4405   30.1176   32.8249 C   0  0  0  0  0  0  0  0  0  0  0  0
   28.1860   30.1601   31.7958 H   0  0  0  0  0  0  0  0  0  0  0  0
   28.2042   29.0675   34.8585 C   0  0  0  0  0  0  0  0  0  0  0  0
   29.0581   29.9706   35.4864 C   0  0  0  0  0  0  0  0  0  0  0  0
   29.2535   29.8824   36.5205 H   0  0  0  0  0  0  0  0  0  0  0  0
   25.4464   24.7283   34.7420 C   0  0  0  0  0  0  0  0  0  0  0  0
   24.8444   23.8688   34.5952 H   0  0  0  0  0  0  0  0  0  0  0  0
   26.2824   25.1910   33.7367 C   0  0  0  0  0  0  0  0  0  0  0  0
   26.3357   24.6907   32.8050 H   0  0  0  0  0  0  0  0  0  0  0  0
   27.0484   26.3209   33.9808 C   0  0  0  0  0  0  0  0  0  0  0  0
   27.7128   26.6972   33.2498 H   0  0  0  0  0  0  0  0  0  0  0  0
   26.9200   26.9330   35.2241 C   0  0  0  0  0  0  0  0  0  0  0  0
   26.1037   26.4366   36.1729 N   0  0  0  0  0  0  0  0  0  0  0  0
   25.3757   25.3483   35.9295 N   0  0  0  0  0  0  0  0  0  0  0  0
  1 15  1  0  0  0  0
  2 13  1  0  0  0  0
  3  4  1  0  0  0  0
  3  8  1  0  0  0  0
  3 16  2  0  0  0  0
  5  6  1  0  0  0  0
  5 18  1  0  0  0  0
  5 19  1  0  0  0  0
  7 18  2  0  0  0  0
  8  9  1  0  0  0  0
  8 13  2  0  0  0  0
 10 22  2  0  0  0  0
 10 24  1  0  0  0  0
 11 12  1  0  0  0  0
 11 24  1  0  0  0  0
 11 33  1  0  0  0  0
 13 14  1  0  0  0  0
 14 15  2  0  0  0  0
 14 18  1  0  0  0  0
 15 16  1  0  0  0  0
 16 17  1  0  0  0  0
 19 20  2  0  0  0  0
 19 25  1  0  0  0  0
 20 21  1  0  0  0  0
 20 22  1  0  0  0  0
 22 23  1  0  0  0  0
 24 25  2  0  0  0  0
 25 26  1  0  0  0  0
 27 28  1  0  0  0  0
 27 29  1  0  0  0  0
 27 35  2  0  0  0  0
 29 30  1  0  0  0  0
 29 31  2  0  0  0  0
 31 32  1  0  0  0  0
 31 33  1  0  0  0  0
 33 34  2  0  0  0  0
 34 35  1  0  0  0  0
M  END
$$$$
tyk2_liang_ejmc_39
  MOE2024           3D
tyk2_liang_ejmc_39
 40 42  0  0  0  0  0  0  0  0999 V2000
   30.5840   33.2210   38.9240 Cl  0  0  0  0  0  0  0  0  0  0  0  0
   33.7230   32.3430   34.4920 Cl  0  0  0  0  0  0  0  0  0  0  0  0
   34.0850   34.8600   37.6560 C   0  0  0  0  0  0  0  0  0  0  0  0
   34.7744   35.5943   37.9917 H   0  0  0  0  0  0  0  0  0  0  0  0
   30.5022   31.9581   35.2473 N   0  0  0  0  0  0  0  0  0  0  0  0
   30.6790   32.7670   34.6397 H   0  0  0  0  0  0  0  0  0  0  0  0
   31.3550   30.8420   37.0530 O   0  0  0  0  0  0  0  0  0  0  0  0
   34.3220   34.1720   36.4650 C   0  0  0  0  0  0  0  0  0  0  0  0
   35.1893   34.3741   35.8891 H   0  0  0  0  0  0  0  0  0  0  0  0
   27.5431   29.3328   33.8874 N   0  0  0  0  0  0  0  0  0  0  0  0
   27.2048   28.4972   36.0608 N   0  0  0  0  0  0  0  0  0  0  0  0
   27.5724   28.4844   37.0175 H   0  0  0  0  0  0  0  0  0  0  0  0
   33.4110   33.2050   36.0310 C   0  0  0  0  0  0  0  0  0  0  0  0
   32.2560   32.9420   36.7670 C   0  0  0  0  0  0  0  0  0  0  0  0
   32.0430   33.6060   37.9670 C   0  0  0  0  0  0  0  0  0  0  0  0
   32.9430   34.5780   38.4090 C   0  0  0  0  0  0  0  0  0  0  0  0
   32.7571   35.0900   39.3189 H   0  0  0  0  0  0  0  0  0  0  0  0
   31.3180   31.8470   36.3570 C   0  0  0  0  0  0  0  0  0  0  0  0
   29.5120   31.0442   34.8288 C   0  0  0  0  0  0  0  0  0  0  0  0
   29.1735   31.0226   33.4779 C   0  0  0  0  0  0  0  0  0  0  0  0
   29.6641   31.6552   32.7871 H   0  0  0  0  0  0  0  0  0  0  0  0
   28.1829   30.1492   33.0493 C   0  0  0  0  0  0  0  0  0  0  0  0
   27.9116   30.1148   32.0243 H   0  0  0  0  0  0  0  0  0  0  0  0
   27.8662   29.3514   35.1864 C   0  0  0  0  0  0  0  0  0  0  0  0
   28.8464   30.1965   35.7027 C   0  0  0  0  0  0  0  0  0  0  0  0
   29.0611   30.1918   36.7367 H   0  0  0  0  0  0  0  0  0  0  0  0
   24.3705   26.5914   34.8384 N   0  0  0  0  0  0  0  0  0  0  0  0
   25.3194   27.4747   34.6376 C   0  0  0  0  0  0  0  0  0  0  0  0
   25.4638   27.9791   33.7177 H   0  0  0  0  0  0  0  0  0  0  0  0
   26.0827   27.6441   35.7931 C   0  0  0  0  0  0  0  0  0  0  0  0
   25.5718   26.8252   36.7349 C   0  0  0  0  0  0  0  0  0  0  0  0
   25.8469   26.6495   37.7399 H   0  0  0  0  0  0  0  0  0  0  0  0
   24.5364   26.1944   36.1264 N   0  0  0  0  0  0  0  0  0  0  0  0
   23.7059   25.2820   36.6986 C   0  0  0  0  0  0  0  0  0  0  0  0
   23.5879   24.4354   36.0223 H   0  0  0  0  0  0  0  0  0  0  0  0
   22.7349   25.7455   36.8733 H   0  0  0  0  0  0  0  0  0  0  0  0
   24.1987   24.8428   37.8686 C   0  0  0  0  0  0  0  0  0  0  0  0
   24.3113   25.6699   38.5695 H   0  0  0  0  0  0  0  0  0  0  0  0
   23.4969   24.1180   38.2810 H   0  0  0  0  0  0  0  0  0  0  0  0
   25.1643   24.3598   37.7185 H   0  0  0  0  0  0  0  0  0  0  0  0
  1 15  1  0  0  0  0
  2 13  1  0  0  0  0
  3  4  1  0  0  0  0
  3  8  1  0  0  0  0
  3 16  2  0  0  0  0
  5  6  1  0  0  0  0
  5 18  1  0  0  0  0
  5 19  1  0  0  0  0
  7 18  2  0  0  0  0
  8  9  1  0  0  0  0
  8 13  2  0  0  0  0
 10 22  2  0  0  0  0
 10 24  1  0  0  0  0
 11 12  1  0  0  0  0
 11 24  1  0  0  0  0
 11 30  1  0  0  0  0
 13 14  1  0  0  0  0
 14 15  2  0  0  0  0
 14 18  1  0  0  0  0
 15 16  1  0  0  0  0
 16 17  1  0  0  0  0
 19 20  2  0  0  0  0
 19 25  1  0  0  0  0
 20 21  1  0  0  0  0
 20 22  1  0  0  0  0
 22 23  1  0  0  0  0
 24 25  2  0  0  0  0
 25 26  1  0  0  0  0
 27 28  2  0  0  0  0
 27 33  1  0  0  0  0
 28 29  1  0  0  0  0
 28 30  1  0  0  0  0
 30 31  2  0  0  0  0
 31 32  1  0  0  0  0
 31 33  1  0  0  0  0
 33 34  1  0  0  0  0
 34 35  1  0  0  0  0
 34 36  1  0  0  0  0
 34 37  1  0  0  0  0
 37 38  1  0  0  0  0
 37 39  1  0  0  0  0
 37 40  1  0  0  0  0
M  END
$$$$
tyk2_liang_ejmc_40
  MOE2024           3D
tyk2_liang_ejmc_40
 29 31  0  0  0  0  0  0  0  0999 V2000
   30.5840   33.2210   38.9240 Cl  0  0  0  0  0  0  0  0  0  0  0  0
   33.7398   32.3667   34.5436 Cl  0  0  0  0  0  0  0  0  0  0  0  0
   34.0850   34.8600   37.6560 C   0  0  0  0  0  0  0  0  0  0  0  0
   34.7744   35.5943   37.9917 H   0  0  0  0  0  0  0  0  0  0  0  0
   30.5191   31.9389   35.2361 N   0  0  0  0  0  0  0  0  0  0  0  0
   30.7097   32.7230   34.6019 H   0  0  0  0  0  0  0  0  0  0  0  0
   31.3550   30.8420   37.0530 O   0  0  0  0  0  0  0  0  0  0  0  0
   34.3220   34.1720   36.4650 C   0  0  0  0  0  0  0  0  0  0  0  0
   35.1034   34.3541   35.9461 H   0  0  0  0  0  0  0  0  0  0  0  0
   27.6985   29.1197   33.8169 N   0  0  0  0  0  0  0  0  0  0  0  0
   33.4110   33.2050   36.0310 C   0  0  0  0  0  0  0  0  0  0  0  0
   32.2560   32.9420   36.7670 C   0  0  0  0  0  0  0  0  0  0  0  0
   32.0430   33.6060   37.9670 C   0  0  0  0  0  0  0  0  0  0  0  0
   32.9430   34.5780   38.4090 C   0  0  0  0  0  0  0  0  0  0  0  0
   32.7571   35.0900   39.3189 H   0  0  0  0  0  0  0  0  0  0  0  0
   31.3180   31.8470   36.3570 C   0  0  0  0  0  0  0  0  0  0  0  0
   29.5773   30.9773   34.8206 C   0  0  0  0  0  0  0  0  0  0  0  0
   29.5187   30.6534   33.4740 C   0  0  0  0  0  0  0  0  0  0  0  0
   30.1889   31.0976   32.7873 H   0  0  0  0  0  0  0  0  0  0  0  0
   28.5685   29.7175   33.0163 C   0  0  0  0  0  0  0  0  0  0  0  0
   28.5357   29.4706   31.9855 H   0  0  0  0  0  0  0  0  0  0  0  0
   27.7701   29.4543   35.1261 C   0  0  0  0  0  0  0  0  0  0  0  0
   28.6631   30.3557   35.6942 C   0  0  0  0  0  0  0  0  0  0  0  0
   28.3599   30.4151   37.0771 C   0  0  0  0  0  0  0  0  0  0  0  0
   28.8598   31.0086   37.7987 H   0  0  0  0  0  0  0  0  0  0  0  0
   27.3242   29.5692   37.3239 C   0  0  0  0  0  0  0  0  0  0  0  0
   26.8311   29.3449   38.2351 H   0  0  0  0  0  0  0  0  0  0  0  0
   26.9646   28.9771   36.1289 N   0  0  0  0  0  0  0  0  0  0  0  0
   26.2169   28.2833   35.9786 H   0  0  0  0  0  0  0  0  0  0  0  0
  1 13  1  0  0  0  0
  2 11  1  0  0  0  0
  3  4  1  0  0  0  0
  3  8  1  0  0  0  0
  3 14  2  0  0  0  0
  5  6  1  0  0  0  0
  5 16  1  0  0  0  0
  5 17  1  0  0  0  0
  7 16  2  0  0  0  0
  8  9  1  0  0  0  0
  8 11  2  0  0  0  0
 10 20  2  0  0  0  0
 10 22  1  0  0  0  0
 11 12  1  0  0  0  0
 12 13  2  0  0  0  0
 12 16  1  0  0  0  0
 13 14  1  0  0  0  0
 14 15  1  0  0  0  0
 17 18  2  0  0  0  0
 17 23  1  0  0  0  0
 18 19  1  0  0  0  0
 18 20  1  0  0  0  0
 20 21  1  0  0  0  0
 22 23  2  0  0  0  0
 22 28  1  0  0  0  0
 23 24  1  0  0  0  0
 24 25  1  0  0  0  0
 24 26  2  0  0  0  0
 26 27  1  0  0  0  0
 26 28  1  0  0  0  0
 28 29  1  0  0  0  0
M  END
$$$$
tyk2_liang_ejmc_41_4gfo
  MOE2024           3D
tyk2_liang_ejmc_41_4gfo
 26 27  0  0  0  0  0  0  0  0999 V2000
   30.5840   33.2210   38.9240 Cl  0  0  0  0  0  0  0  0  0  0  0  0
   33.7230   32.3430   34.4920 Cl  0  0  0  0  0  0  0  0  0  0  0  0
   34.0850   34.8600   37.6560 C   0  0  0  0  0  0  0  0  0  0  0  0
   34.7744   35.5943   37.9917 H   0  0  0  0  0  0  0  0  0  0  0  0
   30.4980   32.0140   35.3060 N   0  0  0  0  0  0  0  0  0  0  0  0
   30.5924   32.8961   34.7905 H   0  0  0  0  0  0  0  0  0  0  0  0
   31.3550   30.8420   37.0530 O   0  0  0  0  0  0  0  0  0  0  0  0
   34.3220   34.1720   36.4650 C   0  0  0  0  0  0  0  0  0  0  0  0
   35.1893   34.3741   35.8891 H   0  0  0  0  0  0  0  0  0  0  0  0
   27.9100   29.1780   33.5840 N   0  0  0  0  0  0  0  0  0  0  0  0
   28.2130   27.8240   35.3880 O   0  0  0  0  0  0  0  0  0  0  0  0
   28.6846   27.8349   36.2323 H   0  0  0  0  0  0  0  0  0  0  0  0
   33.4110   33.2050   36.0310 C   0  0  0  0  0  0  0  0  0  0  0  0
   32.2560   32.9420   36.7670 C   0  0  0  0  0  0  0  0  0  0  0  0
   32.0430   33.6060   37.9670 C   0  0  0  0  0  0  0  0  0  0  0  0
   32.9430   34.5780   38.4090 C   0  0  0  0  0  0  0  0  0  0  0  0
   32.7571   35.0900   39.3189 H   0  0  0  0  0  0  0  0  0  0  0  0
   31.3180   31.8470   36.3570 C   0  0  0  0  0  0  0  0  0  0  0  0
   29.6000   31.0560   34.7790 C   0  0  0  0  0  0  0  0  0  0  0  0
   29.0380   31.2910   33.5110 C   0  0  0  0  0  0  0  0  0  0  0  0
   29.2608   32.1906   33.0013 H   0  0  0  0  0  0  0  0  0  0  0  0
   28.1860   30.3280   32.9330 C   0  0  0  0  0  0  0  0  0  0  0  0
   27.7276   30.4484   31.9815 H   0  0  0  0  0  0  0  0  0  0  0  0
   28.4490   28.9090   34.8080 C   0  0  0  0  0  0  0  0  0  0  0  0
   29.2950   29.8410   35.4220 C   0  0  0  0  0  0  0  0  0  0  0  0
   29.6436   29.5762   36.3783 H   0  0  0  0  0  0  0  0  0  0  0  0
  1 15  1  0  0  0  0
  2 13  1  0  0  0  0
  3  4  1  0  0  0  0
  3  8  1  0  0  0  0
  3 16  2  0  0  0  0
  5  6  1  0  0  0  0
  5 18  1  0  0  0  0
  5 19  1  0  0  0  0
  7 18  2  0  0  0  0
  8  9  1  0  0  0  0
  8 13  2  0  0  0  0
 10 22  2  0  0  0  0
 10 24  1  0  0  0  0
 11 12  1  0  0  0  0
 11 24  1  0  0  0  0
 13 14  1  0  0  0  0
 14 15  2  0  0  0  0
 14 18  1  0  0  0  0
 15 16  1  0  0  0  0
 16 17  1  0  0  0  0
 19 20  2  0  0  0  0
 19 25  1  0  0  0  0
 20 21  1  0  0  0  0
 20 22  1  0  0  0  0
 22 23  1  0  0  0  0
 24 25  2  0  0  0  0
 25 26  1  0  0  0  0
M  END
$$$$
tyk2_liang_ejmc_42
  MOE2024           3D
tyk2_liang_ejmc_42
 35 36  0  0  0  0  0  0  0  0999 V2000
   30.5840   33.2210   38.9240 Cl  0  0  0  0  0  0  0  0  0  0  0  0
   33.7164   32.3612   34.5245 Cl  0  0  0  0  0  0  0  0  0  0  0  0
   34.0850   34.8600   37.6560 C   0  0  0  0  0  0  0  0  0  0  0  0
   34.7744   35.5943   37.9917 H   0  0  0  0  0  0  0  0  0  0  0  0
   30.5076   31.9417   35.2408 N   0  0  0  0  0  0  0  0  0  0  0  0
   30.6686   32.7509   34.6282 H   0  0  0  0  0  0  0  0  0  0  0  0
   31.3550   30.8420   37.0530 O   0  0  0  0  0  0  0  0  0  0  0  0
   34.3220   34.1720   36.4650 C   0  0  0  0  0  0  0  0  0  0  0  0
   35.1034   34.3541   35.9461 H   0  0  0  0  0  0  0  0  0  0  0  0
   27.7963   29.0637   33.8659 N   0  0  0  0  0  0  0  0  0  0  0  0
   33.4110   33.2050   36.0310 C   0  0  0  0  0  0  0  0  0  0  0  0
   32.2560   32.9420   36.7670 C   0  0  0  0  0  0  0  0  0  0  0  0
   32.0430   33.6060   37.9670 C   0  0  0  0  0  0  0  0  0  0  0  0
   32.9430   34.5780   38.4090 C   0  0  0  0  0  0  0  0  0  0  0  0
   32.7571   35.0900   39.3189 H   0  0  0  0  0  0  0  0  0  0  0  0
   31.3180   31.8470   36.3570 C   0  0  0  0  0  0  0  0  0  0  0  0
   29.5871   30.9660   34.8104 C   0  0  0  0  0  0  0  0  0  0  0  0
   29.3536   30.8237   33.4447 C   0  0  0  0  0  0  0  0  0  0  0  0
   29.8614   31.4320   32.7438 H   0  0  0  0  0  0  0  0  0  0  0  0
   28.4467   29.8619   33.0142 C   0  0  0  0  0  0  0  0  0  0  0  0
   28.2536   29.7398   31.9778 H   0  0  0  0  0  0  0  0  0  0  0  0
   28.0328   29.1995   35.1697 C   0  0  0  0  0  0  0  0  0  0  0  0
   27.3169   28.3159   35.9594 N   0  0  0  0  0  0  0  0  0  0  0  0
   27.7344   27.6389   37.0602 C   0  0  0  0  0  0  0  0  0  0  0  0
   29.1835   27.6811   37.5369 C   0  0  0  0  0  0  0  0  0  0  0  0
   29.8388   27.8113   36.6874 H   0  0  0  0  0  0  0  0  0  0  0  0
   29.5412   26.3373   38.2108 C   0  0  0  0  0  0  0  0  0  0  0  0
   30.5890   26.3739   38.5105 H   0  0  0  0  0  0  0  0  0  0  0  0
   29.3790   25.5312   37.4937 H   0  0  0  0  0  0  0  0  0  0  0  0
   28.9049   26.2000   39.0869 H   0  0  0  0  0  0  0  0  0  0  0  0
   29.2817   28.4768   38.2616 H   0  0  0  0  0  0  0  0  0  0  0  0
   26.3805   28.0646   35.6281 H   0  0  0  0  0  0  0  0  0  0  0  0
   28.8952   30.1554   35.6983 C   0  0  0  0  0  0  0  0  0  0  0  0
   29.0064   30.2673   36.7425 H   0  0  0  0  0  0  0  0  0  0  0  0
   26.8688   27.0106   37.6284 O   0  0  0  0  0  0  0  0  0  0  0  0
  1 13  1  0  0  0  0
  2 11  1  0  0  0  0
  3  4  1  0  0  0  0
  3  8  1  0  0  0  0
  3 14  2  0  0  0  0
  5  6  1  0  0  0  0
  5 16  1  0  0  0  0
  5 17  1  0  0  0  0
  7 16  2  0  0  0  0
  8  9  1  0  0  0  0
  8 11  2  0  0  0  0
 10 20  2  0  0  0  0
 10 22  1  0  0  0  0
 11 12  1  0  0  0  0
 12 13  2  0  0  0  0
 12 16  1  0  0  0  0
 13 14  1  0  0  0  0
 14 15  1  0  0  0  0
 17 18  2  0  0  0  0
 17 33  1  0  0  0  0
 18 19  1  0  0  0  0
 18 20  1  0  0  0  0
 20 21  1  0  0  0  0
 22 23  1  0  0  0  0
 22 33  2  0  0  0  0
 23 24  1  0  0  0  0
 23 32  1  0  0  0  0
 24 25  1  0  0  0  0
 24 35  2  0  0  0  0
 25 26  1  0  0  0  0
 25 27  1  0  0  0  0
 25 31  1  0  0  0  0
 27 28  1  0  0  0  0
 27 29  1  0  0  0  0
 27 30  1  0  0  0  0
 33 34  1  0  0  0  0
M  END
$$$$
tyk2_liang_ejmc_43
  MOE2024           3D
tyk2_liang_ejmc_43
 38 39  0  0  0  0  0  0  0  0999 V2000
   30.5840   33.2210   38.9240 Cl  0  0  0  0  0  0  0  0  0  0  0  0
   33.7164   32.3612   34.5245 Cl  0  0  0  0  0  0  0  0  0  0  0  0
   34.0850   34.8600   37.6560 C   0  0  0  0  0  0  0  0  0  0  0  0
   34.7744   35.5943   37.9917 H   0  0  0  0  0  0  0  0  0  0  0  0
   30.4998   31.9376   35.2466 N   0  0  0  0  0  0  0  0  0  0  0  0
   30.6635   32.7343   34.6185 H   0  0  0  0  0  0  0  0  0  0  0  0
   31.3550   30.8420   37.0530 O   0  0  0  0  0  0  0  0  0  0  0  0
   34.3220   34.1720   36.4650 C   0  0  0  0  0  0  0  0  0  0  0  0
   35.1034   34.3541   35.9461 H   0  0  0  0  0  0  0  0  0  0  0  0
   27.7525   29.0434   33.9820 N   0  0  0  0  0  0  0  0  0  0  0  0
   33.4110   33.2050   36.0310 C   0  0  0  0  0  0  0  0  0  0  0  0
   32.2560   32.9420   36.7670 C   0  0  0  0  0  0  0  0  0  0  0  0
   32.0430   33.6060   37.9670 C   0  0  0  0  0  0  0  0  0  0  0  0
   32.9430   34.5780   38.4090 C   0  0  0  0  0  0  0  0  0  0  0  0
   32.7571   35.0900   39.3189 H   0  0  0  0  0  0  0  0  0  0  0  0
   31.3180   31.8470   36.3570 C   0  0  0  0  0  0  0  0  0  0  0  0
   29.5634   30.9633   34.8499 C   0  0  0  0  0  0  0  0  0  0  0  0
   29.3371   30.7612   33.4906 C   0  0  0  0  0  0  0  0  0  0  0  0
   29.8592   31.3286   32.7663 H   0  0  0  0  0  0  0  0  0  0  0  0
   28.4194   29.7925   33.0988 C   0  0  0  0  0  0  0  0  0  0  0  0
   28.2318   29.6246   32.0677 H   0  0  0  0  0  0  0  0  0  0  0  0
   27.9827   29.2388   35.2794 C   0  0  0  0  0  0  0  0  0  0  0  0
   27.2588   28.4106   36.1171 N   0  0  0  0  0  0  0  0  0  0  0  0
   27.7377   27.6000   37.0976 C   0  0  0  0  0  0  0  0  0  0  0  0
   29.2438   27.4032   37.3450 C   0  0  0  0  0  0  0  0  0  0  0  0
   29.7653   26.3397   36.3539 C   0  0  0  0  0  0  0  0  0  0  0  0
   30.8289   26.1812   36.5350 H   0  0  0  0  0  0  0  0  0  0  0  0
   29.6142   26.7107   35.3390 H   0  0  0  0  0  0  0  0  0  0  0  0
   29.2085   25.4123   36.4998 H   0  0  0  0  0  0  0  0  0  0  0  0
   29.4881   26.8684   38.7757 C   0  0  0  0  0  0  0  0  0  0  0  0
   30.5616   26.7527   38.9283 H   0  0  0  0  0  0  0  0  0  0  0  0
   28.9800   25.9102   38.8981 H   0  0  0  0  0  0  0  0  0  0  0  0
   29.0882   27.5957   39.4835 H   0  0  0  0  0  0  0  0  0  0  0  0
   29.7965   28.3203   37.2182 H   0  0  0  0  0  0  0  0  0  0  0  0
   26.2670   28.2798   35.8979 H   0  0  0  0  0  0  0  0  0  0  0  0
   28.8517   30.2070   35.7694 C   0  0  0  0  0  0  0  0  0  0  0  0
   28.9561   30.3619   36.8099 H   0  0  0  0  0  0  0  0  0  0  0  0
   26.8833   26.9810   37.6955 O   0  0  0  0  0  0  0  0  0  0  0  0
  1 13  1  0  0  0  0
  2 11  1  0  0  0  0
  3  4  1  0  0  0  0
  3  8  1  0  0  0  0
  3 14  2  0  0  0  0
  5  6  1  0  0  0  0
  5 16  1  0  0  0  0
  5 17  1  0  0  0  0
  7 16  2  0  0  0  0
  8  9  1  0  0  0  0
  8 11  2  0  0  0  0
 10 20  2  0  0  0  0
 10 22  1  0  0  0  0
 11 12  1  0  0  0  0
 12 13  2  0  0  0  0
 12 16  1  0  0  0  0
 13 14  1  0  0  0  0
 14 15  1  0  0  0  0
 17 18  2  0  0  0  0
 17 36  1  0  0  0  0
 18 19  1  0  0  0  0
 18 20  1  0  0  0  0
 20 21  1  0  0  0  0
 22 23  1  0  0  0  0
 22 36  2  0  0  0  0
 23 24  1  0  0  0  0
 23 35  1  0  0  0  0
 24 25  1  0  0  0  0
 24 38  2  0  0  0  0
 25 26  1  0  0  0  0
 25 30  1  0  0  0  0
 25 34  1  0  0  0  0
 26 27  1  0  0  0  0
 26 28  1  0  0  0  0
 26 29  1  0  0  0  0
 30 31  1  0  0  0  0
 30 32  1  0  0  0  0
 30 33  1  0  0  0  0
 36 37  1  0  0  0  0
M  END
$$$$
tyk2_liang_ejmc_44
  MOE2024           3D
tyk2_liang_ejmc_44
 41 42  0  0  0  0  0  0  0  0999 V2000
   30.5840   33.2210   38.9240 Cl  0  0  0  0  0  0  0  0  0  0  0  0
   33.7164   32.3612   34.5245 Cl  0  0  0  0  0  0  0  0  0  0  0  0
   34.0850   34.8600   37.6560 C   0  0  0  0  0  0  0  0  0  0  0  0
   34.7744   35.5943   37.9917 H   0  0  0  0  0  0  0  0  0  0  0  0
   30.4932   31.9497   35.2535 N   0  0  0  0  0  0  0  0  0  0  0  0
   30.6702   32.7438   34.6258 H   0  0  0  0  0  0  0  0  0  0  0  0
   31.3550   30.8420   37.0530 O   0  0  0  0  0  0  0  0  0  0  0  0
   34.3220   34.1720   36.4650 C   0  0  0  0  0  0  0  0  0  0  0  0
   35.1034   34.3541   35.9461 H   0  0  0  0  0  0  0  0  0  0  0  0
   27.5357   29.2544   34.0195 N   0  0  0  0  0  0  0  0  0  0  0  0
   33.4110   33.2050   36.0310 C   0  0  0  0  0  0  0  0  0  0  0  0
   32.2560   32.9420   36.7670 C   0  0  0  0  0  0  0  0  0  0  0  0
   32.0430   33.6060   37.9670 C   0  0  0  0  0  0  0  0  0  0  0  0
   32.9430   34.5780   38.4090 C   0  0  0  0  0  0  0  0  0  0  0  0
   32.7571   35.0900   39.3189 H   0  0  0  0  0  0  0  0  0  0  0  0
   31.3180   31.8470   36.3570 C   0  0  0  0  0  0  0  0  0  0  0  0
   29.5003   31.0244   34.8750 C   0  0  0  0  0  0  0  0  0  0  0  0
   29.2020   30.8888   33.5209 C   0  0  0  0  0  0  0  0  0  0  0  0
   29.7236   31.4540   32.7945 H   0  0  0  0  0  0  0  0  0  0  0  0
   28.2108   29.9933   33.1354 C   0  0  0  0  0  0  0  0  0  0  0  0
   27.9687   29.8777   32.1087 H   0  0  0  0  0  0  0  0  0  0  0  0
   27.8351   29.3844   35.3116 C   0  0  0  0  0  0  0  0  0  0  0  0
   27.0921   28.5939   36.1640 N   0  0  0  0  0  0  0  0  0  0  0  0
   27.4668   27.4598   36.8169 C   0  0  0  0  0  0  0  0  0  0  0  0
   28.8549   26.7529   36.7077 C   0  0  0  0  0  0  0  0  0  0  0  0
   29.3951   26.6832   35.2566 C   0  0  0  0  0  0  0  0  0  0  0  0
   30.2469   26.0036   35.2214 H   0  0  0  0  0  0  0  0  0  0  0  0
   29.7290   27.6671   34.9328 H   0  0  0  0  0  0  0  0  0  0  0  0
   28.5992   26.3204   34.6046 H   0  0  0  0  0  0  0  0  0  0  0  0
   28.7251   25.2886   37.2051 C   0  0  0  0  0  0  0  0  0  0  0  0
   29.6893   24.7851   37.1309 H   0  0  0  0  0  0  0  0  0  0  0  0
   27.9848   24.7765   36.5888 H   0  0  0  0  0  0  0  0  0  0  0  0
   28.3938   25.2959   38.2448 H   0  0  0  0  0  0  0  0  0  0  0  0
   29.9035   27.4487   37.6052 C   0  0  0  0  0  0  0  0  0  0  0  0
   30.8228   26.8623   37.6048 H   0  0  0  0  0  0  0  0  0  0  0  0
   29.5053   27.5198   38.6182 H   0  0  0  0  0  0  0  0  0  0  0  0
   30.1184   28.4422   37.2210 H   0  0  0  0  0  0  0  0  0  0  0  0
   26.0985   28.8203   36.2591 H   0  0  0  0  0  0  0  0  0  0  0  0
   28.7921   30.2670   35.7978 C   0  0  0  0  0  0  0  0  0  0  0  0
   28.9572   30.3599   36.8379 H   0  0  0  0  0  0  0  0  0  0  0  0
   26.5862   27.0253   37.5312 O   0  0  0  0  0  0  0  0  0  0  0  0
  1 13  1  0  0  0  0
  2 11  1  0  0  0  0
  3  4  1  0  0  0  0
  3  8  1  0  0  0  0
  3 14  2  0  0  0  0
  5  6  1  0  0  0  0
  5 16  1  0  0  0  0
  5 17  1  0  0  0  0
  7 16  2  0  0  0  0
  8  9  1  0  0  0  0
  8 11  2  0  0  0  0
 10 20  2  0  0  0  0
 10 22  1  0  0  0  0
 11 12  1  0  0  0  0
 12 13  2  0  0  0  0
 12 16  1  0  0  0  0
 13 14  1  0  0  0  0
 14 15  1  0  0  0  0
 17 18  2  0  0  0  0
 17 39  1  0  0  0  0
 18 19  1  0  0  0  0
 18 20  1  0  0  0  0
 20 21  1  0  0  0  0
 22 23  1  0  0  0  0
 22 39  2  0  0  0  0
 23 24  1  0  0  0  0
 23 38  1  0  0  0  0
 24 25  1  0  0  0  0
 24 41  2  0  0  0  0
 25 26  1  0  0  0  0
 25 30  1  0  0  0  0
 25 34  1  0  0  0  0
 26 27  1  0  0  0  0
 26 28  1  0  0  0  0
 26 29  1  0  0  0  0
 30 31  1  0  0  0  0
 30 32  1  0  0  0  0
 30 33  1  0  0  0  0
 34 35  1  0  0  0  0
 34 36  1  0  0  0  0
 34 37  1  0  0  0  0
 39 40  1  0  0  0  0
M  END
$$$$
tyk2_liang_ejmc_45
  MOE2024           3D
tyk2_liang_ejmc_45
 39 41  0  0  0  0  0  0  0  0999 V2000
   30.5840   33.2210   38.9240 Cl  0  0  0  0  0  0  0  0  0  0  0  0
   33.7164   32.3612   34.5245 Cl  0  0  0  0  0  0  0  0  0  0  0  0
   34.0850   34.8600   37.6560 C   0  0  0  0  0  0  0  0  0  0  0  0
   34.7744   35.5943   37.9917 H   0  0  0  0  0  0  0  0  0  0  0  0
   30.5089   31.9379   35.2387 N   0  0  0  0  0  0  0  0  0  0  0  0
   30.6682   32.7481   34.6270 H   0  0  0  0  0  0  0  0  0  0  0  0
   31.2950   30.7934   36.9817 O   0  0  0  0  0  0  0  0  0  0  0  0
   34.3220   34.1720   36.4650 C   0  0  0  0  0  0  0  0  0  0  0  0
   35.1034   34.3541   35.9461 H   0  0  0  0  0  0  0  0  0  0  0  0
   27.8116   29.0535   33.8459 N   0  0  0  0  0  0  0  0  0  0  0  0
   33.4110   33.2050   36.0310 C   0  0  0  0  0  0  0  0  0  0  0  0
   32.2560   32.9420   36.7670 C   0  0  0  0  0  0  0  0  0  0  0  0
   32.0430   33.6060   37.9670 C   0  0  0  0  0  0  0  0  0  0  0  0
   32.9430   34.5780   38.4090 C   0  0  0  0  0  0  0  0  0  0  0  0
   32.7571   35.0900   39.3189 H   0  0  0  0  0  0  0  0  0  0  0  0
   31.3180   31.8470   36.3570 C   0  0  0  0  0  0  0  0  0  0  0  0
   29.5932   30.9583   34.8032 C   0  0  0  0  0  0  0  0  0  0  0  0
   29.3532   30.8298   33.4371 C   0  0  0  0  0  0  0  0  0  0  0  0
   29.8525   31.4499   32.7405 H   0  0  0  0  0  0  0  0  0  0  0  0
   28.4507   29.8667   33.0002 C   0  0  0  0  0  0  0  0  0  0  0  0
   28.2524   29.7557   31.9637 H   0  0  0  0  0  0  0  0  0  0  0  0
   28.0547   29.1747   35.1500 C   0  0  0  0  0  0  0  0  0  0  0  0
   27.3603   28.2730   35.9381 N   0  0  0  0  0  0  0  0  0  0  0  0
   27.8165   27.5756   37.0128 C   0  0  0  0  0  0  0  0  0  0  0  0
   29.2809   27.6237   37.4425 C   0  0  0  0  0  0  0  0  0  0  0  0
   29.9038   27.7278   36.5659 H   0  0  0  0  0  0  0  0  0  0  0  0
   29.4073   28.4443   38.1340 H   0  0  0  0  0  0  0  0  0  0  0  0
   26.4163   28.0227   35.6278 H   0  0  0  0  0  0  0  0  0  0  0  0
   28.9121   30.1315   35.6850 C   0  0  0  0  0  0  0  0  0  0  0  0
   29.0256   30.2347   36.7292 H   0  0  0  0  0  0  0  0  0  0  0  0
   26.9689   26.9306   37.5911 O   0  0  0  0  0  0  0  0  0  0  0  0
   29.5643   26.2530   39.6199 C   0  0  0  0  0  0  0  0  0  0  0  0
   29.2784   25.3065   40.0594 H   0  0  0  0  0  0  0  0  0  0  0  0
   29.2292   27.1538   40.1177 H   0  0  0  0  0  0  0  0  0  0  0  0
   29.6521   26.2853   38.1227 C   0  0  0  0  0  0  0  0  0  0  0  0
   29.4114   25.3872   37.5668 H   0  0  0  0  0  0  0  0  0  0  0  0
   30.9118   26.3084   38.9365 C   0  0  0  0  0  0  0  0  0  0  0  0
   31.4471   27.2479   38.9962 H   0  0  0  0  0  0  0  0  0  0  0  0
   31.4960   25.3978   38.9479 H   0  0  0  0  0  0  0  0  0  0  0  0
  1 13  1  0  0  0  0
  2 11  1  0  0  0  0
  3  4  1  0  0  0  0
  3  8  1  0  0  0  0
  3 14  2  0  0  0  0
  5  6  1  0  0  0  0
  5 16  1  0  0  0  0
  5 17  1  0  0  0  0
  7 16  2  0  0  0  0
  8  9  1  0  0  0  0
  8 11  2  0  0  0  0
 10 20  2  0  0  0  0
 10 22  1  0  0  0  0
 11 12  1  0  0  0  0
 12 13  2  0  0  0  0
 12 16  1  0  0  0  0
 13 14  1  0  0  0  0
 14 15  1  0  0  0  0
 17 18  2  0  0  0  0
 17 29  1  0  0  0  0
 18 19  1  0  0  0  0
 18 20  1  0  0  0  0
 20 21  1  0  0  0  0
 22 23  1  0  0  0  0
 22 29  2  0  0  0  0
 23 24  1  0  0  0  0
 23 28  1  0  0  0  0
 24 25  1  0  0  0  0
 24 31  2  0  0  0  0
 25 26  1  0  0  0  0
 25 27  1  0  0  0  0
 25 35  1  0  0  0  0
 29 30  1  0  0  0  0
 32 33  1  0  0  0  0
 32 34  1  0  0  0  0
 32 35  1  0  0  0  0
 32 37  1  0  0  0  0
 35 36  1  0  0  0  0
 35 37  1  0  0  0  0
 37 38  1  0  0  0  0
 37 39  1  0  0  0  0
M  END
$$$$
tyk2_liang_ejmc_46
  MOE2024           3D
tyk2_liang_ejmc_46
 36 38  0  0  0  0  0  0  0  0999 V2000
   30.5840   33.2210   38.9240 Cl  0  0  0  0  0  0  0  0  0  0  0  0
   33.7164   32.3612   34.5245 Cl  0  0  0  0  0  0  0  0  0  0  0  0
   34.0850   34.8600   37.6560 C   0  0  0  0  0  0  0  0  0  0  0  0
   34.7744   35.5943   37.9917 H   0  0  0  0  0  0  0  0  0  0  0  0
   30.5089   31.9379   35.2387 N   0  0  0  0  0  0  0  0  0  0  0  0
   30.6682   32.7481   34.6270 H   0  0  0  0  0  0  0  0  0  0  0  0
   31.2980   30.7938   36.9813 O   0  0  0  0  0  0  0  0  0  0  0  0
   34.3220   34.1720   36.4650 C   0  0  0  0  0  0  0  0  0  0  0  0
   35.1034   34.3541   35.9461 H   0  0  0  0  0  0  0  0  0  0  0  0
   27.8116   29.0535   33.8459 N   0  0  0  0  0  0  0  0  0  0  0  0
   33.4110   33.2050   36.0310 C   0  0  0  0  0  0  0  0  0  0  0  0
   32.2560   32.9420   36.7670 C   0  0  0  0  0  0  0  0  0  0  0  0
   32.0430   33.6060   37.9670 C   0  0  0  0  0  0  0  0  0  0  0  0
   32.9430   34.5780   38.4090 C   0  0  0  0  0  0  0  0  0  0  0  0
   32.7571   35.0900   39.3189 H   0  0  0  0  0  0  0  0  0  0  0  0
   31.3180   31.8470   36.3570 C   0  0  0  0  0  0  0  0  0  0  0  0
   29.5932   30.9583   34.8032 C   0  0  0  0  0  0  0  0  0  0  0  0
   29.3532   30.8298   33.4371 C   0  0  0  0  0  0  0  0  0  0  0  0
   29.8525   31.4499   32.7405 H   0  0  0  0  0  0  0  0  0  0  0  0
   28.4507   29.8667   33.0002 C   0  0  0  0  0  0  0  0  0  0  0  0
   28.2524   29.7557   31.9637 H   0  0  0  0  0  0  0  0  0  0  0  0
   28.0547   29.1747   35.1500 C   0  0  0  0  0  0  0  0  0  0  0  0
   27.3579   28.2663   35.9270 N   0  0  0  0  0  0  0  0  0  0  0  0
   27.8165   27.5596   36.9913 C   0  0  0  0  0  0  0  0  0  0  0  0
   26.4345   27.9846   35.5868 H   0  0  0  0  0  0  0  0  0  0  0  0
   28.9121   30.1315   35.6850 C   0  0  0  0  0  0  0  0  0  0  0  0
   29.0256   30.2347   36.7292 H   0  0  0  0  0  0  0  0  0  0  0  0
   27.0065   26.8261   37.5128 O   0  0  0  0  0  0  0  0  0  0  0  0
   30.3206   27.1916   36.5121 C   0  0  0  0  0  0  0  0  0  0  0  0
   31.2560   27.7363   36.5412 H   0  0  0  0  0  0  0  0  0  0  0  0
   29.9866   26.8182   35.5522 H   0  0  0  0  0  0  0  0  0  0  0  0
   29.2601   27.6567   37.4723 C   0  0  0  0  0  0  0  0  0  0  0  0
   29.4786   28.4941   38.1199 H   0  0  0  0  0  0  0  0  0  0  0  0
   29.9734   26.3567   37.7221 C   0  0  0  0  0  0  0  0  0  0  0  0
   29.4091   25.4497   37.5440 H   0  0  0  0  0  0  0  0  0  0  0  0
   30.6922   26.3510   38.5305 H   0  0  0  0  0  0  0  0  0  0  0  0
  1 13  1  0  0  0  0
  2 11  1  0  0  0  0
  3  4  1  0  0  0  0
  3  8  1  0  0  0  0
  3 14  2  0  0  0  0
  5  6  1  0  0  0  0
  5 16  1  0  0  0  0
  5 17  1  0  0  0  0
  7 16  2  0  0  0  0
  8  9  1  0  0  0  0
  8 11  2  0  0  0  0
 10 20  2  0  0  0  0
 10 22  1  0  0  0  0
 11 12  1  0  0  0  0
 12 13  2  0  0  0  0
 12 16  1  0  0  0  0
 13 14  1  0  0  0  0
 14 15  1  0  0  0  0
 17 18  2  0  0  0  0
 17 26  1  0  0  0  0
 18 19  1  0  0  0  0
 18 20  1  0  0  0  0
 20 21  1  0  0  0  0
 22 23  1  0  0  0  0
 22 26  2  0  0  0  0
 23 24  1  0  0  0  0
 23 25  1  0  0  0  0
 24 28  2  0  0  0  0
 24 32  1  0  0  0  0
 26 27  1  0  0  0  0
 29 30  1  0  0  0  0
 29 31  1  0  0  0  0
 29 32  1  0  0  0  0
 29 34  1  0  0  0  0
 32 33  1  0  0  0  0
 32 34  1  0  0  0  0
 34 35  1  0  0  0  0
 34 36  1  0  0  0  0
M  END
$$$$
tyk2_liang_ejmc_47
  MOE2024           3D
tyk2_liang_ejmc_47
 39 41  0  0  0  0  0  0  0  0999 V2000
   30.5840   33.2210   38.9240 Cl  0  0  0  0  0  0  0  0  0  0  0  0
   33.7164   32.3612   34.5245 Cl  0  0  0  0  0  0  0  0  0  0  0  0
   34.0850   34.8600   37.6560 C   0  0  0  0  0  0  0  0  0  0  0  0
   34.7744   35.5943   37.9917 H   0  0  0  0  0  0  0  0  0  0  0  0
   30.5089   31.9379   35.2387 N   0  0  0  0  0  0  0  0  0  0  0  0
   30.6682   32.7481   34.6270 H   0  0  0  0  0  0  0  0  0  0  0  0
   31.2977   30.7939   36.9807 O   0  0  0  0  0  0  0  0  0  0  0  0
   34.3220   34.1720   36.4650 C   0  0  0  0  0  0  0  0  0  0  0  0
   35.1034   34.3541   35.9461 H   0  0  0  0  0  0  0  0  0  0  0  0
   27.8116   29.0535   33.8459 N   0  0  0  0  0  0  0  0  0  0  0  0
   33.4110   33.2050   36.0310 C   0  0  0  0  0  0  0  0  0  0  0  0
   32.2560   32.9420   36.7670 C   0  0  0  0  0  0  0  0  0  0  0  0
   32.0430   33.6060   37.9670 C   0  0  0  0  0  0  0  0  0  0  0  0
   32.9430   34.5780   38.4090 C   0  0  0  0  0  0  0  0  0  0  0  0
   32.7571   35.0900   39.3189 H   0  0  0  0  0  0  0  0  0  0  0  0
   31.3180   31.8470   36.3570 C   0  0  0  0  0  0  0  0  0  0  0  0
   29.5932   30.9583   34.8032 C   0  0  0  0  0  0  0  0  0  0  0  0
   29.3532   30.8298   33.4371 C   0  0  0  0  0  0  0  0  0  0  0  0
   29.8525   31.4499   32.7405 H   0  0  0  0  0  0  0  0  0  0  0  0
   28.4507   29.8667   33.0002 C   0  0  0  0  0  0  0  0  0  0  0  0
   28.2524   29.7557   31.9637 H   0  0  0  0  0  0  0  0  0  0  0  0
   28.0547   29.1747   35.1500 C   0  0  0  0  0  0  0  0  0  0  0  0
   27.3396   28.2778   35.9262 N   0  0  0  0  0  0  0  0  0  0  0  0
   27.7398   27.5929   37.0316 C   0  0  0  0  0  0  0  0  0  0  0  0
   26.4163   28.0124   35.5699 H   0  0  0  0  0  0  0  0  0  0  0  0
   28.9121   30.1315   35.6850 C   0  0  0  0  0  0  0  0  0  0  0  0
   29.0256   30.2347   36.7292 H   0  0  0  0  0  0  0  0  0  0  0  0
   26.8663   26.9281   37.5466 O   0  0  0  0  0  0  0  0  0  0  0  0
   29.1329   27.2197   39.6830 C   0  0  0  0  0  0  0  0  0  0  0  0
   29.8185   27.1441   40.5157 H   0  0  0  0  0  0  0  0  0  0  0  0
   28.1042   27.0280   39.9584 H   0  0  0  0  0  0  0  0  0  0  0  0
   29.5795   26.4185   38.4243 C   0  0  0  0  0  0  0  0  0  0  0  0
   29.0030   25.5225   38.2384 H   0  0  0  0  0  0  0  0  0  0  0  0
   30.6476   26.2450   38.4094 H   0  0  0  0  0  0  0  0  0  0  0  0
   29.1753   27.6527   37.5633 C   0  0  0  0  0  0  0  0  0  0  0  0
   29.8846   27.8853   36.7811 H   0  0  0  0  0  0  0  0  0  0  0  0
   29.2974   28.5237   38.8483 C   0  0  0  0  0  0  0  0  0  0  0  0
   28.4965   29.2378   38.9857 H   0  0  0  0  0  0  0  0  0  0  0  0
   30.2825   28.9581   38.9572 H   0  0  0  0  0  0  0  0  0  0  0  0
  1 13  1  0  0  0  0
  2 11  1  0  0  0  0
  3  4  1  0  0  0  0
  3  8  1  0  0  0  0
  3 14  2  0  0  0  0
  5  6  1  0  0  0  0
  5 16  1  0  0  0  0
  5 17  1  0  0  0  0
  7 16  2  0  0  0  0
  8  9  1  0  0  0  0
  8 11  2  0  0  0  0
 10 20  2  0  0  0  0
 10 22  1  0  0  0  0
 11 12  1  0  0  0  0
 12 13  2  0  0  0  0
 12 16  1  0  0  0  0
 13 14  1  0  0  0  0
 14 15  1  0  0  0  0
 17 18  2  0  0  0  0
 17 26  1  0  0  0  0
 18 19  1  0  0  0  0
 18 20  1  0  0  0  0
 20 21  1  0  0  0  0
 22 23  1  0  0  0  0
 22 26  2  0  0  0  0
 23 24  1  0  0  0  0
 23 25  1  0  0  0  0
 24 28  2  0  0  0  0
 24 35  1  0  0  0  0
 26 27  1  0  0  0  0
 29 30  1  0  0  0  0
 29 31  1  0  0  0  0
 29 32  1  0  0  0  0
 29 37  1  0  0  0  0
 32 33  1  0  0  0  0
 32 34  1  0  0  0  0
 32 35  1  0  0  0  0
 35 36  1  0  0  0  0
 35 37  1  0  0  0  0
 37 38  1  0  0  0  0
 37 39  1  0  0  0  0
M  END
$$$$
tyk2_liang_ejmc_48
  MOE2024           3D
tyk2_liang_ejmc_48
 42 44  0  0  0  0  0  0  0  0999 V2000
   30.5840   33.2210   38.9240 Cl  0  0  0  0  0  0  0  0  0  0  0  0
   33.7164   32.3612   34.5245 Cl  0  0  0  0  0  0  0  0  0  0  0  0
   34.0850   34.8600   37.6560 C   0  0  0  0  0  0  0  0  0  0  0  0
   34.7744   35.5943   37.9917 H   0  0  0  0  0  0  0  0  0  0  0  0
   30.5089   31.9379   35.2387 N   0  0  0  0  0  0  0  0  0  0  0  0
   30.6682   32.7481   34.6270 H   0  0  0  0  0  0  0  0  0  0  0  0
   31.2982   30.7935   36.9810 O   0  0  0  0  0  0  0  0  0  0  0  0
   34.3220   34.1720   36.4650 C   0  0  0  0  0  0  0  0  0  0  0  0
   35.1034   34.3541   35.9461 H   0  0  0  0  0  0  0  0  0  0  0  0
   27.8116   29.0535   33.8459 N   0  0  0  0  0  0  0  0  0  0  0  0
   33.4110   33.2050   36.0310 C   0  0  0  0  0  0  0  0  0  0  0  0
   32.2560   32.9420   36.7670 C   0  0  0  0  0  0  0  0  0  0  0  0
   32.0430   33.6060   37.9670 C   0  0  0  0  0  0  0  0  0  0  0  0
   32.9430   34.5780   38.4090 C   0  0  0  0  0  0  0  0  0  0  0  0
   32.7571   35.0900   39.3189 H   0  0  0  0  0  0  0  0  0  0  0  0
   31.3180   31.8470   36.3570 C   0  0  0  0  0  0  0  0  0  0  0  0
   29.5932   30.9583   34.8032 C   0  0  0  0  0  0  0  0  0  0  0  0
   29.3532   30.8298   33.4371 C   0  0  0  0  0  0  0  0  0  0  0  0
   29.8525   31.4499   32.7405 H   0  0  0  0  0  0  0  0  0  0  0  0
   28.4507   29.8667   33.0002 C   0  0  0  0  0  0  0  0  0  0  0  0
   28.2524   29.7557   31.9637 H   0  0  0  0  0  0  0  0  0  0  0  0
   28.0547   29.1747   35.1500 C   0  0  0  0  0  0  0  0  0  0  0  0
   27.3550   28.2776   35.9377 N   0  0  0  0  0  0  0  0  0  0  0  0
   27.8042   27.5563   36.9994 C   0  0  0  0  0  0  0  0  0  0  0  0
   26.4025   28.0515   35.6363 H   0  0  0  0  0  0  0  0  0  0  0  0
   28.9121   30.1315   35.6850 C   0  0  0  0  0  0  0  0  0  0  0  0
   29.0256   30.2347   36.7292 H   0  0  0  0  0  0  0  0  0  0  0  0
   26.9449   26.9194   37.5711 O   0  0  0  0  0  0  0  0  0  0  0  0
   30.8370   27.6687   39.2158 C   0  0  0  0  0  0  0  0  0  0  0  0
   30.9001   27.5655   40.3004 H   0  0  0  0  0  0  0  0  0  0  0  0
   31.6040   28.3645   38.8675 H   0  0  0  0  0  0  0  0  0  0  0  0
   29.4556   28.1828   38.8021 C   0  0  0  0  0  0  0  0  0  0  0  0
   29.4338   29.2724   38.7599 H   0  0  0  0  0  0  0  0  0  0  0  0
   28.6982   27.8131   39.4971 H   0  0  0  0  0  0  0  0  0  0  0  0
   29.2779   27.5297   37.4224 C   0  0  0  0  0  0  0  0  0  0  0  0
   29.9299   27.9855   36.6913 H   0  0  0  0  0  0  0  0  0  0  0  0
   29.7468   26.0898   37.6863 C   0  0  0  0  0  0  0  0  0  0  0  0
   29.9539   25.5507   36.7607 H   0  0  0  0  0  0  0  0  0  0  0  0
   29.0113   25.5482   38.2854 H   0  0  0  0  0  0  0  0  0  0  0  0
   31.0169   26.3143   38.5139 C   0  0  0  0  0  0  0  0  0  0  0  0
   31.8868   26.3598   37.8556 H   0  0  0  0  0  0  0  0  0  0  0  0
   31.1467   25.5095   39.2393 H   0  0  0  0  0  0  0  0  0  0  0  0
  1 13  1  0  0  0  0
  2 11  1  0  0  0  0
  3  4  1  0  0  0  0
  3  8  1  0  0  0  0
  3 14  2  0  0  0  0
  5  6  1  0  0  0  0
  5 16  1  0  0  0  0
  5 17  1  0  0  0  0
  7 16  2  0  0  0  0
  8  9  1  0  0  0  0
  8 11  2  0  0  0  0
 10 20  2  0  0  0  0
 10 22  1  0  0  0  0
 11 12  1  0  0  0  0
 12 13  2  0  0  0  0
 12 16  1  0  0  0  0
 13 14  1  0  0  0  0
 14 15  1  0  0  0  0
 17 18  2  0  0  0  0
 17 26  1  0  0  0  0
 18 19  1  0  0  0  0
 18 20  1  0  0  0  0
 20 21  1  0  0  0  0
 22 23  1  0  0  0  0
 22 26  2  0  0  0  0
 23 24  1  0  0  0  0
 23 25  1  0  0  0  0
 24 28  2  0  0  0  0
 24 35  1  0  0  0  0
 26 27  1  0  0  0  0
 29 30  1  0  0  0  0
 29 31  1  0  0  0  0
 29 32  1  0  0  0  0
 29 40  1  0  0  0  0
 32 33  1  0  0  0  0
 32 34  1  0  0  0  0
 32 35  1  0  0  0  0
 35 36  1  0  0  0  0
 35 37  1  0  0  0  0
 37 38  1  0  0  0  0
 37 39  1  0  0  0  0
 37 40  1  0  0  0  0
 40 41  1  0  0  0  0
 40 42  1  0  0  0  0
M  END
$$$$
tyk2_liang_ejmc_49
  MOE2024           3D
tyk2_liang_ejmc_49
 39 41  0  0  0  0  0  0  0  0999 V2000
   30.5840   33.2210   38.9240 Cl  0  0  0  0  0  0  0  0  0  0  0  0
   33.7164   32.3612   34.5245 Cl  0  0  0  0  0  0  0  0  0  0  0  0
   34.0850   34.8600   37.6560 C   0  0  0  0  0  0  0  0  0  0  0  0
   34.7744   35.5943   37.9917 H   0  0  0  0  0  0  0  0  0  0  0  0
   30.5089   31.9379   35.2387 N   0  0  0  0  0  0  0  0  0  0  0  0
   30.6682   32.7481   34.6270 H   0  0  0  0  0  0  0  0  0  0  0  0
   31.3012   30.7960   36.9799 O   0  0  0  0  0  0  0  0  0  0  0  0
   34.3220   34.1720   36.4650 C   0  0  0  0  0  0  0  0  0  0  0  0
   35.1034   34.3541   35.9461 H   0  0  0  0  0  0  0  0  0  0  0  0
   27.8116   29.0535   33.8459 N   0  0  0  0  0  0  0  0  0  0  0  0
   33.4110   33.2050   36.0310 C   0  0  0  0  0  0  0  0  0  0  0  0
   32.2560   32.9420   36.7670 C   0  0  0  0  0  0  0  0  0  0  0  0
   32.0430   33.6060   37.9670 C   0  0  0  0  0  0  0  0  0  0  0  0
   32.9430   34.5780   38.4090 C   0  0  0  0  0  0  0  0  0  0  0  0
   32.7571   35.0900   39.3189 H   0  0  0  0  0  0  0  0  0  0  0  0
   31.3180   31.8470   36.3570 C   0  0  0  0  0  0  0  0  0  0  0  0
   29.5932   30.9583   34.8032 C   0  0  0  0  0  0  0  0  0  0  0  0
   29.3532   30.8298   33.4371 C   0  0  0  0  0  0  0  0  0  0  0  0
   29.8525   31.4499   32.7405 H   0  0  0  0  0  0  0  0  0  0  0  0
   28.4507   29.8667   33.0002 C   0  0  0  0  0  0  0  0  0  0  0  0
   28.2524   29.7557   31.9637 H   0  0  0  0  0  0  0  0  0  0  0  0
   28.0547   29.1747   35.1500 C   0  0  0  0  0  0  0  0  0  0  0  0
   27.3488   28.2785   35.9331 N   0  0  0  0  0  0  0  0  0  0  0  0
   27.7667   27.6630   37.0793 C   0  0  0  0  0  0  0  0  0  0  0  0
   26.4134   28.0158   35.6087 H   0  0  0  0  0  0  0  0  0  0  0  0
   28.9121   30.1315   35.6850 C   0  0  0  0  0  0  0  0  0  0  0  0
   29.0256   30.2347   36.7292 H   0  0  0  0  0  0  0  0  0  0  0  0
   26.8602   27.1708   37.7326 O   0  0  0  0  0  0  0  0  0  0  0  0
   31.8595   27.4566   38.2722 C   0  0  0  0  0  0  0  0  0  0  0  0
   32.8754   27.4195   38.5721 H   0  0  0  0  0  0  0  0  0  0  0  0
   30.8635   27.6899   39.2156 C   0  0  0  0  0  0  0  0  0  0  0  0
   31.1213   27.8252   40.2348 H   0  0  0  0  0  0  0  0  0  0  0  0
   29.5319   27.7512   38.8206 C   0  0  0  0  0  0  0  0  0  0  0  0
   28.7743   27.9265   39.5414 H   0  0  0  0  0  0  0  0  0  0  0  0
   29.1777   27.5883   37.4746 C   0  0  0  0  0  0  0  0  0  0  0  0
   30.1916   27.3365   36.5369 C   0  0  0  0  0  0  0  0  0  0  0  0
   29.9437   27.1934   35.5163 H   0  0  0  0  0  0  0  0  0  0  0  0
   31.5227   27.2774   36.9339 C   0  0  0  0  0  0  0  0  0  0  0  0
   32.2829   27.1017   36.2163 H   0  0  0  0  0  0  0  0  0  0  0  0
  1 13  1  0  0  0  0
  2 11  1  0  0  0  0
  3  4  1  0  0  0  0
  3  8  1  0  0  0  0
  3 14  2  0  0  0  0
  5  6  1  0  0  0  0
  5 16  1  0  0  0  0
  5 17  1  0  0  0  0
  7 16  2  0  0  0  0
  8  9  1  0  0  0  0
  8 11  2  0  0  0  0
 10 20  2  0  0  0  0
 10 22  1  0  0  0  0
 11 12  1  0  0  0  0
 12 13  2  0  0  0  0
 12 16  1  0  0  0  0
 13 14  1  0  0  0  0
 14 15  1  0  0  0  0
 17 18  2  0  0  0  0
 17 26  1  0  0  0  0
 18 19  1  0  0  0  0
 18 20  1  0  0  0  0
 20 21  1  0  0  0  0
 22 23  1  0  0  0  0
 22 26  2  0  0  0  0
 23 24  1  0  0  0  0
 23 25  1  0  0  0  0
 24 28  2  0  0  0  0
 24 35  1  0  0  0  0
 26 27  1  0  0  0  0
 29 30  1  0  0  0  0
 29 31  1  0  0  0  0
 29 38  2  0  0  0  0
 31 32  1  0  0  0  0
 31 33  2  0  0  0  0
 33 34  1  0  0  0  0
 33 35  1  0  0  0  0
 35 36  2  0  0  0  0
 36 37  1  0  0  0  0
 36 38  1  0  0  0  0
 38 39  1  0  0  0  0
M  END
$$$$
tyk2_liang_ejmc_50
  MOE2024           3D
tyk2_liang_ejmc_50
 33 34  0  0  0  0  0  0  0  0999 V2000
   30.5840   33.2210   38.9240 Cl  0  0  0  0  0  0  0  0  0  0  0  0
   33.7164   32.3612   34.5245 Cl  0  0  0  0  0  0  0  0  0  0  0  0
   34.0850   34.8600   37.6560 C   0  0  0  0  0  0  0  0  0  0  0  0
   34.7744   35.5943   37.9917 H   0  0  0  0  0  0  0  0  0  0  0  0
   30.5089   31.9379   35.2387 N   0  0  0  0  0  0  0  0  0  0  0  0
   30.6682   32.7481   34.6270 H   0  0  0  0  0  0  0  0  0  0  0  0
   31.2897   30.7947   36.9838 O   0  0  0  0  0  0  0  0  0  0  0  0
   34.3220   34.1720   36.4650 C   0  0  0  0  0  0  0  0  0  0  0  0
   35.1034   34.3541   35.9461 H   0  0  0  0  0  0  0  0  0  0  0  0
   27.8116   29.0535   33.8459 N   0  0  0  0  0  0  0  0  0  0  0  0
   33.4110   33.2050   36.0310 C   0  0  0  0  0  0  0  0  0  0  0  0
   32.2560   32.9420   36.7670 C   0  0  0  0  0  0  0  0  0  0  0  0
   32.0430   33.6060   37.9670 C   0  0  0  0  0  0  0  0  0  0  0  0
   32.9430   34.5780   38.4090 C   0  0  0  0  0  0  0  0  0  0  0  0
   32.7571   35.0900   39.3189 H   0  0  0  0  0  0  0  0  0  0  0  0
   31.3180   31.8470   36.3570 C   0  0  0  0  0  0  0  0  0  0  0  0
   29.5932   30.9583   34.8032 C   0  0  0  0  0  0  0  0  0  0  0  0
   29.3532   30.8298   33.4371 C   0  0  0  0  0  0  0  0  0  0  0  0
   29.8525   31.4499   32.7405 H   0  0  0  0  0  0  0  0  0  0  0  0
   28.4507   29.8667   33.0002 C   0  0  0  0  0  0  0  0  0  0  0  0
   28.2524   29.7557   31.9637 H   0  0  0  0  0  0  0  0  0  0  0  0
   28.0547   29.1747   35.1500 C   0  0  0  0  0  0  0  0  0  0  0  0
   27.3694   28.2699   35.9403 N   0  0  0  0  0  0  0  0  0  0  0  0
   27.8602   27.5615   36.9926 C   0  0  0  0  0  0  0  0  0  0  0  0
   29.3374   27.5893   37.3995 C   0  0  0  0  0  0  0  0  0  0  0  0
   29.9553   27.7662   36.5298 H   0  0  0  0  0  0  0  0  0  0  0  0
   29.6581   26.2717   37.9624 O   0  0  0  0  0  0  0  0  0  0  0  0
   28.8357   25.8780   38.3157 H   0  0  0  0  0  0  0  0  0  0  0  0
   29.4672   28.3491   38.1582 H   0  0  0  0  0  0  0  0  0  0  0  0
   26.4206   28.0196   35.6424 H   0  0  0  0  0  0  0  0  0  0  0  0
   28.9121   30.1315   35.6850 C   0  0  0  0  0  0  0  0  0  0  0  0
   29.0256   30.2347   36.7292 H   0  0  0  0  0  0  0  0  0  0  0  0
   27.0401   26.8999   37.5971 O   0  0  0  0  0  0  0  0  0  0  0  0
  1 13  1  0  0  0  0
  2 11  1  0  0  0  0
  3  4  1  0  0  0  0
  3  8  1  0  0  0  0
  3 14  2  0  0  0  0
  5  6  1  0  0  0  0
  5 16  1  0  0  0  0
  5 17  1  0  0  0  0
  7 16  2  0  0  0  0
  8  9  1  0  0  0  0
  8 11  2  0  0  0  0
 10 20  2  0  0  0  0
 10 22  1  0  0  0  0
 11 12  1  0  0  0  0
 12 13  2  0  0  0  0
 12 16  1  0  0  0  0
 13 14  1  0  0  0  0
 14 15  1  0  0  0  0
 17 18  2  0  0  0  0
 17 31  1  0  0  0  0
 18 19  1  0  0  0  0
 18 20  1  0  0  0  0
 20 21  1  0  0  0  0
 22 23  1  0  0  0  0
 22 31  2  0  0  0  0
 23 24  1  0  0  0  0
 23 30  1  0  0  0  0
 24 25  1  0  0  0  0
 24 33  2  0  0  0  0
 25 26  1  0  0  0  0
 25 27  1  0  0  0  0
 25 29  1  0  0  0  0
 27 28  1  0  0  0  0
 31 32  1  0  0  0  0
M  END
$$$$
tyk2_liang_ejmc_51
  MOE2024           3D
tyk2_liang_ejmc_51
 34 35  0  0  0  0  0  0  0  0999 V2000
   30.5840   33.2210   38.9240 Cl  0  0  0  0  0  0  0  0  0  0  0  0
   33.7164   32.3612   34.5245 Cl  0  0  0  0  0  0  0  0  0  0  0  0
   34.0850   34.8600   37.6560 C   0  0  0  0  0  0  0  0  0  0  0  0
   34.7744   35.5943   37.9917 H   0  0  0  0  0  0  0  0  0  0  0  0
   30.5089   31.9379   35.2387 N   0  0  0  0  0  0  0  0  0  0  0  0
   30.6682   32.7481   34.6270 H   0  0  0  0  0  0  0  0  0  0  0  0
   31.2914   30.7946   36.9826 O   0  0  0  0  0  0  0  0  0  0  0  0
   34.3220   34.1720   36.4650 C   0  0  0  0  0  0  0  0  0  0  0  0
   35.1034   34.3541   35.9461 H   0  0  0  0  0  0  0  0  0  0  0  0
   27.8116   29.0535   33.8459 N   0  0  0  0  0  0  0  0  0  0  0  0
   33.4110   33.2050   36.0310 C   0  0  0  0  0  0  0  0  0  0  0  0
   32.2560   32.9420   36.7670 C   0  0  0  0  0  0  0  0  0  0  0  0
   32.0430   33.6060   37.9670 C   0  0  0  0  0  0  0  0  0  0  0  0
   32.9430   34.5780   38.4090 C   0  0  0  0  0  0  0  0  0  0  0  0
   32.7571   35.0900   39.3189 H   0  0  0  0  0  0  0  0  0  0  0  0
   31.3180   31.8470   36.3570 C   0  0  0  0  0  0  0  0  0  0  0  0
   29.5932   30.9583   34.8032 C   0  0  0  0  0  0  0  0  0  0  0  0
   29.3532   30.8298   33.4371 C   0  0  0  0  0  0  0  0  0  0  0  0
   29.8525   31.4499   32.7405 H   0  0  0  0  0  0  0  0  0  0  0  0
   28.4507   29.8667   33.0002 C   0  0  0  0  0  0  0  0  0  0  0  0
   28.2524   29.7557   31.9637 H   0  0  0  0  0  0  0  0  0  0  0  0
   28.0547   29.1747   35.1500 C   0  0  0  0  0  0  0  0  0  0  0  0
   27.3583   28.2774   35.9390 N   0  0  0  0  0  0  0  0  0  0  0  0
   27.8289   27.5688   36.9997 C   0  0  0  0  0  0  0  0  0  0  0  0
   29.3137   27.5764   37.4119 C   0  0  0  0  0  0  0  0  0  0  0  0
   29.9263   27.7917   36.5466 H   0  0  0  0  0  0  0  0  0  0  0  0
   29.6907   26.2398   37.9518 N   0  0  0  0  0  0  0  0  0  0  0  0
   28.9971   25.9945   38.6510 H   0  0  0  0  0  0  0  0  0  0  0  0
   29.6123   25.5552   37.2116 H   0  0  0  0  0  0  0  0  0  0  0  0
   29.4389   28.3229   38.1849 H   0  0  0  0  0  0  0  0  0  0  0  0
   26.4066   28.0409   35.6407 H   0  0  0  0  0  0  0  0  0  0  0  0
   28.9121   30.1315   35.6850 C   0  0  0  0  0  0  0  0  0  0  0  0
   29.0256   30.2347   36.7292 H   0  0  0  0  0  0  0  0  0  0  0  0
   26.9908   26.9209   37.5932 O   0  0  0  0  0  0  0  0  0  0  0  0
  1 13  1  0  0  0  0
  2 11  1  0  0  0  0
  3  4  1  0  0  0  0
  3  8  1  0  0  0  0
  3 14  2  0  0  0  0
  5  6  1  0  0  0  0
  5 16  1  0  0  0  0
  5 17  1  0  0  0  0
  7 16  2  0  0  0  0
  8  9  1  0  0  0  0
  8 11  2  0  0  0  0
 10 20  2  0  0  0  0
 10 22  1  0  0  0  0
 11 12  1  0  0  0  0
 12 13  2  0  0  0  0
 12 16  1  0  0  0  0
 13 14  1  0  0  0  0
 14 15  1  0  0  0  0
 17 18  2  0  0  0  0
 17 32  1  0  0  0  0
 18 19  1  0  0  0  0
 18 20  1  0  0  0  0
 20 21  1  0  0  0  0
 22 23  1  0  0  0  0
 22 32  2  0  0  0  0
 23 24  1  0  0  0  0
 23 31  1  0  0  0  0
 24 25  1  0  0  0  0
 24 34  2  0  0  0  0
 25 26  1  0  0  0  0
 25 27  1  0  0  0  0
 25 30  1  0  0  0  0
 27 28  1  0  0  0  0
 27 29  1  0  0  0  0
 32 33  1  0  0  0  0
M  END
$$$$
tyk2_liang_ejmc_52
  MOE2024           3D
tyk2_liang_ejmc_52
 38 40  0  0  0  0  0  0  0  0999 V2000
   30.5840   33.2210   38.9240 Cl  0  0  0  0  0  0  0  0  0  0  0  0
   33.7164   32.3612   34.5245 Cl  0  0  0  0  0  0  0  0  0  0  0  0
   34.0850   34.8600   37.6560 C   0  0  0  0  0  0  0  0  0  0  0  0
   34.7744   35.5943   37.9917 H   0  0  0  0  0  0  0  0  0  0  0  0
   30.5089   31.9379   35.2387 N   0  0  0  0  0  0  0  0  0  0  0  0
   30.6682   32.7481   34.6270 H   0  0  0  0  0  0  0  0  0  0  0  0
   31.2932   30.7941   36.9822 O   0  0  0  0  0  0  0  0  0  0  0  0
   34.3220   34.1720   36.4650 C   0  0  0  0  0  0  0  0  0  0  0  0
   35.1034   34.3541   35.9461 H   0  0  0  0  0  0  0  0  0  0  0  0
   27.8116   29.0535   33.8459 N   0  0  0  0  0  0  0  0  0  0  0  0
   33.4110   33.2050   36.0310 C   0  0  0  0  0  0  0  0  0  0  0  0
   32.2560   32.9420   36.7670 C   0  0  0  0  0  0  0  0  0  0  0  0
   32.0430   33.6060   37.9670 C   0  0  0  0  0  0  0  0  0  0  0  0
   32.9430   34.5780   38.4090 C   0  0  0  0  0  0  0  0  0  0  0  0
   32.7571   35.0900   39.3189 H   0  0  0  0  0  0  0  0  0  0  0  0
   31.3180   31.8470   36.3570 C   0  0  0  0  0  0  0  0  0  0  0  0
   29.5932   30.9583   34.8032 C   0  0  0  0  0  0  0  0  0  0  0  0
   29.3532   30.8298   33.4371 C   0  0  0  0  0  0  0  0  0  0  0  0
   29.8525   31.4499   32.7405 H   0  0  0  0  0  0  0  0  0  0  0  0
   28.4507   29.8667   33.0002 C   0  0  0  0  0  0  0  0  0  0  0  0
   28.2524   29.7557   31.9637 H   0  0  0  0  0  0  0  0  0  0  0  0
   28.0547   29.1747   35.1500 C   0  0  0  0  0  0  0  0  0  0  0  0
   27.3426   28.2866   35.9373 N   0  0  0  0  0  0  0  0  0  0  0  0
   27.7737   27.5913   37.0244 C   0  0  0  0  0  0  0  0  0  0  0  0
   26.3947   28.0571   35.6215 H   0  0  0  0  0  0  0  0  0  0  0  0
   28.9121   30.1315   35.6850 C   0  0  0  0  0  0  0  0  0  0  0  0
   29.0256   30.2347   36.7292 H   0  0  0  0  0  0  0  0  0  0  0  0
   26.9003   26.9773   37.6025 O   0  0  0  0  0  0  0  0  0  0  0  0
   29.2479   27.0680   39.4837 N   0  0  0  0  0  0  0  0  0  0  0  0
   28.2674   26.9086   39.7460 H   0  0  0  0  0  0  0  0  0  0  0  0
   29.6091   26.3139   38.2618 C   0  0  0  0  0  0  0  0  0  0  0  0
   28.9794   25.4566   38.0668 H   0  0  0  0  0  0  0  0  0  0  0  0
   30.6665   26.0904   38.2123 H   0  0  0  0  0  0  0  0  0  0  0  0
   29.2346   27.5857   37.4605 C   0  0  0  0  0  0  0  0  0  0  0  0
   29.9148   27.8311   36.6567 H   0  0  0  0  0  0  0  0  0  0  0  0
   29.4349   28.3618   38.7851 C   0  0  0  0  0  0  0  0  0  0  0  0
   28.6640   29.0909   38.9942 H   0  0  0  0  0  0  0  0  0  0  0  0
   30.4393   28.7495   38.8919 H   0  0  0  0  0  0  0  0  0  0  0  0
  1 13  1  0  0  0  0
  2 11  1  0  0  0  0
  3  4  1  0  0  0  0
  3  8  1  0  0  0  0
  3 14  2  0  0  0  0
  5  6  1  0  0  0  0
  5 16  1  0  0  0  0
  5 17  1  0  0  0  0
  7 16  2  0  0  0  0
  8  9  1  0  0  0  0
  8 11  2  0  0  0  0
 10 20  2  0  0  0  0
 10 22  1  0  0  0  0
 11 12  1  0  0  0  0
 12 13  2  0  0  0  0
 12 16  1  0  0  0  0
 13 14  1  0  0  0  0
 14 15  1  0  0  0  0
 17 18  2  0  0  0  0
 17 26  1  0  0  0  0
 18 19  1  0  0  0  0
 18 20  1  0  0  0  0
 20 21  1  0  0  0  0
 22 23  1  0  0  0  0
 22 26  2  0  0  0  0
 23 24  1  0  0  0  0
 23 25  1  0  0  0  0
 24 28  2  0  0  0  0
 24 34  1  0  0  0  0
 26 27  1  0  0  0  0
 29 30  1  0  0  0  0
 29 31  1  0  0  0  0
 29 36  1  0  0  0  0
 31 32  1  0  0  0  0
 31 33  1  0  0  0  0
 31 34  1  0  0  0  0
 34 35  1  0  0  0  0
 34 36  1  0  0  0  0
 36 37  1  0  0  0  0
 36 38  1  0  0  0  0
M  END
$$$$
tyk2_liang_ejmc_53
  MOE2024           3D
tyk2_liang_ejmc_53
 40 42  0  0  1  0  0  0  0  0999 V2000
   30.5840   33.2210   38.9240 Cl  0  0  0  0  0  0  0  0  0  0  0  0
   33.7164   32.3612   34.5245 Cl  0  0  0  0  0  0  0  0  0  0  0  0
   34.0850   34.8600   37.6560 C   0  0  0  0  0  0  0  0  0  0  0  0
   34.7744   35.5943   37.9917 H   0  0  0  0  0  0  0  0  0  0  0  0
   30.5076   31.9417   35.2408 N   0  0  0  0  0  0  0  0  0  0  0  0
   30.6686   32.7509   34.6282 H   0  0  0  0  0  0  0  0  0  0  0  0
   31.3550   30.8420   37.0530 O   0  0  0  0  0  0  0  0  0  0  0  0
   34.3220   34.1720   36.4650 C   0  0  0  0  0  0  0  0  0  0  0  0
   35.1034   34.3541   35.9461 H   0  0  0  0  0  0  0  0  0  0  0  0
   27.7963   29.0637   33.8659 N   0  0  0  0  0  0  0  0  0  0  0  0
   33.4110   33.2050   36.0310 C   0  0  0  0  0  0  0  0  0  0  0  0
   32.2560   32.9420   36.7670 C   0  0  0  0  0  0  0  0  0  0  0  0
   32.0430   33.6060   37.9670 C   0  0  0  0  0  0  0  0  0  0  0  0
   32.9430   34.5780   38.4090 C   0  0  0  0  0  0  0  0  0  0  0  0
   32.7571   35.0900   39.3189 H   0  0  0  0  0  0  0  0  0  0  0  0
   31.3180   31.8470   36.3570 C   0  0  0  0  0  0  0  0  0  0  0  0
   29.5871   30.9660   34.8104 C   0  0  0  0  0  0  0  0  0  0  0  0
   29.3536   30.8237   33.4447 C   0  0  0  0  0  0  0  0  0  0  0  0
   29.8614   31.4320   32.7438 H   0  0  0  0  0  0  0  0  0  0  0  0
   28.4467   29.8619   33.0142 C   0  0  0  0  0  0  0  0  0  0  0  0
   28.2536   29.7398   31.9778 H   0  0  0  0  0  0  0  0  0  0  0  0
   28.0328   29.1995   35.1697 C   0  0  0  0  0  0  0  0  0  0  0  0
   27.3169   28.3159   35.9594 N   0  0  0  0  0  0  0  0  0  0  0  0
   27.7344   27.6389   37.0602 C   0  0  0  0  0  0  0  0  0  0  0  0
   26.3805   28.0646   35.6281 H   0  0  0  0  0  0  0  0  0  0  0  0
   28.8952   30.1554   35.6983 C   0  0  0  0  0  0  0  0  0  0  0  0
   29.0064   30.2673   36.7425 H   0  0  0  0  0  0  0  0  0  0  0  0
   26.8688   27.0106   37.6284 O   0  0  0  0  0  0  0  0  0  0  0  0
   30.5094   27.9062   39.3629 C   0  0  0  0  0  0  0  0  0  0  0  0
   30.4889   27.8469   40.4562 H   0  0  0  0  0  0  0  0  0  0  0  0
   31.3187   28.5918   39.0869 H   0  0  0  0  0  0  0  0  0  0  0  0
   29.1796   28.4035   38.8098 C   0  0  0  0  0  0  0  0  0  0  0  0
   29.1620   29.4901   38.6850 H   0  0  0  0  0  0  0  0  0  0  0  0
   28.3659   28.1284   39.4913 H   0  0  0  0  0  0  0  0  0  0  0  0
   29.0241   27.6645   37.4910 C   0  0  3  0  0  0  0  0  0  0  0  0
   29.6391   28.1349   36.7148 H   0  0  0  0  0  0  0  0  0  0  0  0
   29.5529   26.2784   37.8171 O   0  0  0  0  0  0  0  0  0  0  0  0
   30.7507   26.5382   38.7240 C   0  0  0  0  0  0  0  0  0  0  0  0
   31.6756   26.5612   38.1370 H   0  0  0  0  0  0  0  0  0  0  0  0
   30.8596   25.7493   39.4756 H   0  0  0  0  0  0  0  0  0  0  0  0
  1 13  1  0  0  0  0
  2 11  1  0  0  0  0
  3  4  1  0  0  0  0
  3  8  1  0  0  0  0
  3 14  2  0  0  0  0
  5  6  1  0  0  0  0
  5 16  1  0  0  0  0
  5 17  1  0  0  0  0
  7 16  2  0  0  0  0
  8  9  1  0  0  0  0
  8 11  2  0  0  0  0
 10 20  2  0  0  0  0
 10 22  1  0  0  0  0
 11 12  1  0  0  0  0
 12 13  2  0  0  0  0
 12 16  1  0  0  0  0
 13 14  1  0  0  0  0
 14 15  1  0  0  0  0
 17 18  2  0  0  0  0
 17 26  1  0  0  0  0
 18 19  1  0  0  0  0
 18 20  1  0  0  0  0
 20 21  1  0  0  0  0
 22 23  1  0  0  0  0
 22 26  2  0  0  0  0
 23 24  1  0  0  0  0
 23 25  1  0  0  0  0
 24 28  2  0  0  0  0
 24 35  1  0  0  0  0
 26 27  1  0  0  0  0
 29 30  1  0  0  0  0
 29 31  1  0  0  0  0
 29 32  1  0  0  0  0
 29 38  1  0  0  0  0
 32 33  1  0  0  0  0
 32 34  1  0  0  0  0
 32 35  1  0  0  0  0
 35 36  1  0  0  0  0
 35 37  1  0  0  0  0
 37 38  1  0  0  0  0
 38 39  1  0  0  0  0
 38 40  1  0  0  0  0
M  END
$$$$
tyk2_liang_ejmc_54
  MOE2024           3D
tyk2_liang_ejmc_54
 37 38  0  0  0  0  0  0  0  0999 V2000
   30.5840   33.2210   38.9240 Cl  0  0  0  0  0  0  0  0  0  0  0  0
   33.7164   32.3612   34.5245 Cl  0  0  0  0  0  0  0  0  0  0  0  0
   34.0850   34.8600   37.6560 C   0  0  0  0  0  0  0  0  0  0  0  0
   34.7744   35.5943   37.9917 H   0  0  0  0  0  0  0  0  0  0  0  0
   30.5089   31.9379   35.2387 N   0  0  0  0  0  0  0  0  0  0  0  0
   30.6682   32.7481   34.6270 H   0  0  0  0  0  0  0  0  0  0  0  0
   31.3008   30.7889   36.9751 O   0  0  0  0  0  0  0  0  0  0  0  0
   34.3220   34.1720   36.4650 C   0  0  0  0  0  0  0  0  0  0  0  0
   35.1034   34.3541   35.9461 H   0  0  0  0  0  0  0  0  0  0  0  0
   27.8116   29.0535   33.8459 N   0  0  0  0  0  0  0  0  0  0  0  0
   33.4110   33.2050   36.0310 C   0  0  0  0  0  0  0  0  0  0  0  0
   32.2560   32.9420   36.7670 C   0  0  0  0  0  0  0  0  0  0  0  0
   32.0430   33.6060   37.9670 C   0  0  0  0  0  0  0  0  0  0  0  0
   32.9430   34.5780   38.4090 C   0  0  0  0  0  0  0  0  0  0  0  0
   32.7571   35.0900   39.3189 H   0  0  0  0  0  0  0  0  0  0  0  0
   31.3180   31.8470   36.3570 C   0  0  0  0  0  0  0  0  0  0  0  0
   29.5932   30.9583   34.8032 C   0  0  0  0  0  0  0  0  0  0  0  0
   29.3532   30.8298   33.4371 C   0  0  0  0  0  0  0  0  0  0  0  0
   29.8525   31.4499   32.7405 H   0  0  0  0  0  0  0  0  0  0  0  0
   28.4507   29.8667   33.0002 C   0  0  0  0  0  0  0  0  0  0  0  0
   28.2524   29.7557   31.9637 H   0  0  0  0  0  0  0  0  0  0  0  0
   28.0547   29.1747   35.1500 C   0  0  0  0  0  0  0  0  0  0  0  0
   27.3640   28.2647   35.9288 N   0  0  0  0  0  0  0  0  0  0  0  0
   27.7811   27.6216   37.0503 C   0  0  0  0  0  0  0  0  0  0  0  0
   29.0799   27.7450   37.4196 N   0  0  0  0  0  0  0  0  0  0  0  0
   29.5868   27.2039   38.6661 C   0  0  0  0  0  0  0  0  0  0  0  0
   29.2957   26.1566   38.7794 H   0  0  0  0  0  0  0  0  0  0  0  0
   29.2212   27.7876   39.5138 H   0  0  0  0  0  0  0  0  0  0  0  0
   31.1031   27.3293   38.5456 C   0  0  0  0  0  0  0  0  0  0  0  0
   31.4569   26.7608   37.6844 H   0  0  0  0  0  0  0  0  0  0  0  0
   31.5699   26.9354   39.4478 H   0  0  0  0  0  0  0  0  0  0  0  0
   31.3838   28.3778   38.4310 H   0  0  0  0  0  0  0  0  0  0  0  0
   29.6855   28.3734   36.8752 H   0  0  0  0  0  0  0  0  0  0  0  0
   26.4931   27.9003   35.5365 H   0  0  0  0  0  0  0  0  0  0  0  0
   28.9121   30.1315   35.6850 C   0  0  0  0  0  0  0  0  0  0  0  0
   29.0256   30.2347   36.7292 H   0  0  0  0  0  0  0  0  0  0  0  0
   26.9866   26.9364   37.6742 O   0  0  0  0  0  0  0  0  0  0  0  0
  1 13  1  0  0  0  0
  2 11  1  0  0  0  0
  3  4  1  0  0  0  0
  3  8  1  0  0  0  0
  3 14  2  0  0  0  0
  5  6  1  0  0  0  0
  5 16  1  0  0  0  0
  5 17  1  0  0  0  0
  7 16  2  0  0  0  0
  8  9  1  0  0  0  0
  8 11  2  0  0  0  0
 10 20  2  0  0  0  0
 10 22  1  0  0  0  0
 11 12  1  0  0  0  0
 12 13  2  0  0  0  0
 12 16  1  0  0  0  0
 13 14  1  0  0  0  0
 14 15  1  0  0  0  0
 17 18  2  0  0  0  0
 17 35  1  0  0  0  0
 18 19  1  0  0  0  0
 18 20  1  0  0  0  0
 20 21  1  0  0  0  0
 22 23  1  0  0  0  0
 22 35  2  0  0  0  0
 23 24  1  0  0  0  0
 23 34  1  0  0  0  0
 24 25  1  0  0  0  0
 24 37  2  0  0  0  0
 25 26  1  0  0  0  0
 25 33  1  0  0  0  0
 26 27  1  0  0  0  0
 26 28  1  0  0  0  0
 26 29  1  0  0  0  0
 29 30  1  0  0  0  0
 29 31  1  0  0  0  0
 29 32  1  0  0  0  0
 35 36  1  0  0  0  0
M  END
$$$$
tyk2_liang_ejmc_55
  MOE2024           3D
tyk2_liang_ejmc_55
 33 34  0  0  0  0  0  0  0  0999 V2000
   30.5840   33.2210   38.9240 Cl  0  0  0  0  0  0  0  0  0  0  0  0
   33.7164   32.3612   34.5245 Cl  0  0  0  0  0  0  0  0  0  0  0  0
   34.0850   34.8600   37.6560 C   0  0  0  0  0  0  0  0  0  0  0  0
   34.7744   35.5943   37.9917 H   0  0  0  0  0  0  0  0  0  0  0  0
   30.5089   31.9379   35.2387 N   0  0  0  0  0  0  0  0  0  0  0  0
   30.6682   32.7481   34.6270 H   0  0  0  0  0  0  0  0  0  0  0  0
   31.3033   30.7959   36.9821 O   0  0  0  0  0  0  0  0  0  0  0  0
   34.3220   34.1720   36.4650 C   0  0  0  0  0  0  0  0  0  0  0  0
   35.1034   34.3541   35.9461 H   0  0  0  0  0  0  0  0  0  0  0  0
   27.8116   29.0535   33.8459 N   0  0  0  0  0  0  0  0  0  0  0  0
   33.4110   33.2050   36.0310 C   0  0  0  0  0  0  0  0  0  0  0  0
   32.2560   32.9420   36.7670 C   0  0  0  0  0  0  0  0  0  0  0  0
   32.0430   33.6060   37.9670 C   0  0  0  0  0  0  0  0  0  0  0  0
   32.9430   34.5780   38.4090 C   0  0  0  0  0  0  0  0  0  0  0  0
   32.7571   35.0900   39.3189 H   0  0  0  0  0  0  0  0  0  0  0  0
   31.3180   31.8470   36.3570 C   0  0  0  0  0  0  0  0  0  0  0  0
   29.5932   30.9583   34.8032 C   0  0  0  0  0  0  0  0  0  0  0  0
   29.3532   30.8298   33.4371 C   0  0  0  0  0  0  0  0  0  0  0  0
   29.8525   31.4499   32.7405 H   0  0  0  0  0  0  0  0  0  0  0  0
   28.4507   29.8667   33.0002 C   0  0  0  0  0  0  0  0  0  0  0  0
   28.2524   29.7557   31.9637 H   0  0  0  0  0  0  0  0  0  0  0  0
   28.0547   29.1747   35.1500 C   0  0  0  0  0  0  0  0  0  0  0  0
   27.3198   28.2745   35.9029 N   0  0  0  0  0  0  0  0  0  0  0  0
   27.6324   27.7172   37.0977 C   0  0  0  0  0  0  0  0  0  0  0  0
   28.8268   28.0103   37.6390 O   0  0  0  0  0  0  0  0  0  0  0  0
   29.2369   27.4644   38.9152 C   0  0  0  0  0  0  0  0  0  0  0  0
   30.2293   27.8556   39.1419 H   0  0  0  0  0  0  0  0  0  0  0  0
   29.2604   26.3767   38.8332 H   0  0  0  0  0  0  0  0  0  0  0  0
   28.5175   27.7800   39.6723 H   0  0  0  0  0  0  0  0  0  0  0  0
   26.4976   27.8746   35.4464 H   0  0  0  0  0  0  0  0  0  0  0  0
   28.9121   30.1315   35.6850 C   0  0  0  0  0  0  0  0  0  0  0  0
   29.0256   30.2347   36.7292 H   0  0  0  0  0  0  0  0  0  0  0  0
   26.8422   26.9620   37.6376 O   0  0  0  0  0  0  0  0  0  0  0  0
  1 13  1  0  0  0  0
  2 11  1  0  0  0  0
  3  4  1  0  0  0  0
  3  8  1  0  0  0  0
  3 14  2  0  0  0  0
  5  6  1  0  0  0  0
  5 16  1  0  0  0  0
  5 17  1  0  0  0  0
  7 16  2  0  0  0  0
  8  9  1  0  0  0  0
  8 11  2  0  0  0  0
 10 20  2  0  0  0  0
 10 22  1  0  0  0  0
 11 12  1  0  0  0  0
 12 13  2  0  0  0  0
 12 16  1  0  0  0  0
 13 14  1  0  0  0  0
 14 15  1  0  0  0  0
 17 18  2  0  0  0  0
 17 31  1  0  0  0  0
 18 19  1  0  0  0  0
 18 20  1  0  0  0  0
 20 21  1  0  0  0  0
 22 23  1  0  0  0  0
 22 31  2  0  0  0  0
 23 24  1  0  0  0  0
 23 30  1  0  0  0  0
 24 25  1  0  0  0  0
 24 33  2  0  0  0  0
 25 26  1  0  0  0  0
 26 27  1  0  0  0  0
 26 28  1  0  0  0  0
 26 29  1  0  0  0  0
 31 32  1  0  0  0  0
M  END
$$$$
tyk2_liang_jmc_01_3lxn
  MOE2024           3D
tyk2_liang_jmc_01_3lxn
 43 45  0  0  1  0  0  0  0  0999 V2000
   31.1501   31.8952   35.9667 C   0  0  3  0  0  0  0  0  0  0  0  0
   30.2980   32.2495   35.3867 H   0  0  0  0  0  0  0  0  0  0  0  0
   31.4526   32.8933   37.0495 C   0  0  0  0  0  0  0  0  0  0  0  0
   32.1334   32.4401   37.7693 H   0  0  0  0  0  0  0  0  0  0  0  0
   30.5232   33.1667   37.5494 H   0  0  0  0  0  0  0  0  0  0  0  0
   33.1547   34.0048   35.5736 C   0  0  0  0  0  0  0  0  0  0  0  0
   33.3361   34.9948   35.1523 H   0  0  0  0  0  0  0  0  0  0  0  0
   34.0515   33.6600   36.0891 H   0  0  0  0  0  0  0  0  0  0  0  0
   32.8180   33.0419   34.4575 C   0  0  0  0  0  0  0  0  0  0  0  0
   32.0277   33.4705   33.8413 H   0  0  0  0  0  0  0  0  0  0  0  0
   33.7054   32.8778   33.8468 H   0  0  0  0  0  0  0  0  0  0  0  0
   32.3487   31.7186   35.0206 C   0  0  3  0  0  0  0  0  0  0  0  0
   31.9661   31.0905   34.2166 H   0  0  0  0  0  0  0  0  0  0  0  0
   32.0610   34.0804   36.5166 N   0  0  0  0  0  0  0  0  0  0  0  0
   30.7890   35.3029   37.9064 O   0  0  0  0  0  0  0  0  0  0  0  0
   31.5609   35.2601   36.9620 C   0  0  0  0  0  0  0  0  0  0  0  0
   32.0239   36.4623   36.1811 C   0  0  0  0  0  0  0  0  0  0  0  0
   33.0659   36.6723   36.4241 H   0  0  0  0  0  0  0  0  0  0  0  0
   31.9343   36.2569   35.1141 H   0  0  0  0  0  0  0  0  0  0  0  0
   31.2019   37.6282   36.5213 C   0  0  0  0  0  0  0  0  0  0  0  0
   30.5157   38.5145   36.8341 N   0  0  0  0  0  0  0  0  0  0  0  0
   33.5288   30.9799   35.6299 C   0  0  0  0  0  0  0  0  0  0  0  0
   33.9483   31.5738   36.4429 H   0  0  0  0  0  0  0  0  0  0  0  0
   34.2910   30.8210   34.8665 H   0  0  0  0  0  0  0  0  0  0  0  0
   33.1943   30.0185   36.0167 H   0  0  0  0  0  0  0  0  0  0  0  0
   30.8818   30.6132   36.6038 N   0  0  0  0  0  0  0  0  0  0  0  0
   31.3735   30.1529   38.0634 C   0  0  0  0  0  0  0  0  0  0  0  0
   32.1016   30.8701   38.4443 H   0  0  0  0  0  0  0  0  0  0  0  0
   31.8342   29.1681   37.9977 H   0  0  0  0  0  0  0  0  0  0  0  0
   30.5191   30.1110   38.7378 H   0  0  0  0  0  0  0  0  0  0  0  0
   29.9301   29.7731   35.9833 C   0  0  0  0  0  0  0  0  0  0  0  0
   29.3461   29.9583   34.7373 C   0  0  0  0  0  0  0  0  0  0  0  0
   29.4032   30.9337   33.7007 C   0  0  0  0  0  0  0  0  0  0  0  0
   29.9984   31.8361   33.7058 H   0  0  0  0  0  0  0  0  0  0  0  0
   28.5643   30.5214   32.6927 C   0  0  0  0  0  0  0  0  0  0  0  0
   28.3828   31.0457   31.7659 H   0  0  0  0  0  0  0  0  0  0  0  0
   27.9996   29.3316   33.0690 N   0  0  0  0  0  0  0  0  0  0  0  0
   27.3445   28.7954   32.5186 H   0  0  0  0  0  0  0  0  0  0  0  0
   28.4616   28.9866   34.3028 C   0  0  0  0  0  0  0  0  0  0  0  0
   28.1072   27.8788   34.9423 N   0  0  0  0  0  0  0  0  0  0  0  0
   28.7194   27.8111   36.1205 C   0  0  0  0  0  0  0  0  0  0  0  0
   28.4837   26.9462   36.7217 H   0  0  0  0  0  0  0  0  0  0  0  0
   29.5841   28.6690   36.6581 N   0  0  0  0  0  0  0  0  0  0  0  0
  1  2  1  0  0  0  0
  1  3  1  0  0  0  0
  1 12  1  0  0  0  0
  1 26  1  0  0  0  0
  3  4  1  0  0  0  0
  3  5  1  0  0  0  0
  3 14  1  0  0  0  0
  6  7  1  0  0  0  0
  6  8  1  0  0  0  0
  6  9  1  0  0  0  0
  6 14  1  0  0  0  0
  9 10  1  0  0  0  0
  9 11  1  0  0  0  0
  9 12  1  0  0  0  0
 12 13  1  0  0  0  0
 12 22  1  0  0  0  0
 14 16  1  0  0  0  0
 15 16  2  0  0  0  0
 16 17  1  0  0  0  0
 17 18  1  0  0  0  0
 17 19  1  0  0  0  0
 17 20  1  0  0  0  0
 20 21  3  0  0  0  0
 22 23  1  0  0  0  0
 22 24  1  0  0  0  0
 22 25  1  0  0  0  0
 26 27  1  0  0  0  0
 26 31  1  0  0  0  0
 27 28  1  0  0  0  0
 27 29  1  0  0  0  0
 27 30  1  0  0  0  0
 31 32  1  0  0  0  0
 31 43  2  0  0  0  0
 32 33  1  0  0  0  0
 32 39  2  0  0  0  0
 33 34  1  0  0  0  0
 33 35  2  0  0  0  0
 35 36  1  0  0  0  0
 35 37  1  0  0  0  0
 37 38  1  0  0  0  0
 37 39  1  0  0  0  0
 39 40  1  0  0  0  0
 40 41  2  0  0  0  0
 41 42  1  0  0  0  0
 41 43  1  0  0  0  0
M  END
$$$$
tyk2_liang_jmc_02_4u5j
  MOE2024           3D
tyk2_liang_jmc_02_4u5j
 41 44  0  0  1  0  0  0  0  0999 V2000
   29.9332   29.5949   34.2381 N   0  0  0  0  0  0  0  0  0  0  0  0
   28.8178   28.8606   33.9211 C   0  0  0  0  0  0  0  0  0  0  0  0
   28.8059   28.3729   32.9788 H   0  0  0  0  0  0  0  0  0  0  0  0
   27.7695   28.7268   34.7111 N   0  0  0  0  0  0  0  0  0  0  0  0
   27.8425   29.3675   35.8917 C   0  0  0  0  0  0  0  0  0  0  0  0
   26.9139   29.4034   36.8948 N   0  0  0  0  0  0  0  0  0  0  0  0
   27.3984   30.1813   37.9312 C   0  0  0  0  0  0  0  0  0  0  0  0
   26.8376   30.3463   38.8164 H   0  0  0  0  0  0  0  0  0  0  0  0
   26.0048   28.9161   36.8525 H   0  0  0  0  0  0  0  0  0  0  0  0
   28.9280   30.1274   36.2884 C   0  0  0  0  0  0  0  0  0  0  0  0
   28.6315   30.6328   37.5767 C   0  0  0  0  0  0  0  0  0  0  0  0
   29.2581   31.2545   38.1641 H   0  0  0  0  0  0  0  0  0  0  0  0
   30.0008   30.2201   35.3944 C   0  0  0  0  0  0  0  0  0  0  0  0
   32.4574   32.6091   36.5460 N   0  0  0  0  0  0  0  0  0  0  0  0
   32.9034   33.8036   37.1870 C   0  0  3  0  0  0  0  0  0  0  0  0
   33.9907   33.8622   37.1299 H   0  0  0  0  0  0  0  0  0  0  0  0
   32.5002   33.7902   38.5566 C   0  0  0  0  0  0  0  0  0  0  0  0
   32.9376   32.9248   39.0551 H   0  0  0  0  0  0  0  0  0  0  0  0
   31.4129   33.7315   38.6137 H   0  0  0  0  0  0  0  0  0  0  0  0
   31.1090   32.1852   36.4178 C   0  0  0  0  0  0  0  0  0  0  0  0
   30.2402   32.7094   36.7876 H   0  0  0  0  0  0  0  0  0  0  0  0
   31.1019   30.9500   35.7172 C   0  0  0  0  0  0  0  0  0  0  0  0
   32.4471   30.6112   35.4125 C   0  0  0  0  0  0  0  0  0  0  0  0
   32.7756   29.7277   34.8842 H   0  0  0  0  0  0  0  0  0  0  0  0
   33.2839   31.6355   35.9250 N   0  0  0  0  0  0  0  0  0  0  0  0
   32.9248   34.9275   39.1668 C   0  0  0  0  0  0  0  0  0  0  0  0
   33.2884   35.8987   39.6882 N   0  0  0  0  0  0  0  0  0  0  0  0
   32.7635   36.9396   35.3920 C   0  0  0  0  0  0  0  0  0  0  0  0
   33.5704   37.4445   34.8494 H   0  0  0  0  0  0  0  0  0  0  0  0
   32.1069   37.7161   35.8004 H   0  0  0  0  0  0  0  0  0  0  0  0
   33.3128   36.0647   36.5126 C   0  0  0  0  0  0  0  0  0  0  0  0
   33.3711   36.5982   37.4649 H   0  0  0  0  0  0  0  0  0  0  0  0
   34.3219   35.7202   36.2559 H   0  0  0  0  0  0  0  0  0  0  0  0
   32.3586   34.8828   36.5648 C   0  0  0  0  0  0  0  0  0  0  0  0
   31.4389   35.1591   37.0938 H   0  0  0  0  0  0  0  0  0  0  0  0
   32.0673   34.6191   35.0978 C   0  0  0  0  0  0  0  0  0  0  0  0
   31.1580   34.0306   34.9514 H   0  0  0  0  0  0  0  0  0  0  0  0
   32.9010   34.0729   34.6419 H   0  0  0  0  0  0  0  0  0  0  0  0
   31.9618   36.0098   34.4813 C   0  0  0  0  0  0  0  0  0  0  0  0
   30.9153   36.3343   34.4492 H   0  0  0  0  0  0  0  0  0  0  0  0
   32.3381   36.0192   33.4532 H   0  0  0  0  0  0  0  0  0  0  0  0
  1  2  1  0  0  0  0
  1 13  2  0  0  0  0
  2  3  1  0  0  0  0
  2  4  2  0  0  0  0
  4  5  1  0  0  0  0
  5  6  1  0  0  0  0
  5 10  2  0  0  0  0
  6  7  1  0  0  0  0
  6  9  1  0  0  0  0
  7  8  1  0  0  0  0
  7 11  2  0  0  0  0
 10 11  1  0  0  0  0
 10 13  1  0  0  0  0
 11 12  1  0  0  0  0
 13 22  1  0  0  0  0
 14 15  1  0  0  0  0
 14 20  1  0  0  0  0
 14 25  1  0  0  0  0
 15 16  1  0  0  0  0
 15 17  1  0  0  0  0
 15 34  1  0  0  0  0
 17 18  1  0  0  0  0
 17 19  1  0  0  0  0
 17 26  1  0  0  0  0
 20 21  1  0  0  0  0
 20 22  2  0  0  0  0
 22 23  1  0  0  0  0
 23 24  1  0  0  0  0
 23 25  2  0  0  0  0
 26 27  3  0  0  0  0
 28 29  1  0  0  0  0
 28 30  1  0  0  0  0
 28 31  1  0  0  0  0
 28 39  1  0  0  0  0
 31 32  1  0  0  0  0
 31 33  1  0  0  0  0
 31 34  1  0  0  0  0
 34 35  1  0  0  0  0
 34 36  1  0  0  0  0
 36 37  1  0  0  0  0
 36 38  1  0  0  0  0
 36 39  1  0  0  0  0
 39 40  1  0  0  0  0
 39 41  1  0  0  0  0
M  END
$$$$
tyk2_liang_jmc_04
  MOE2024           3D
tyk2_liang_jmc_04
 38 40  0  0  0  0  0  0  0  0999 V2000
   30.5840   33.2210   38.9240 Cl  0  0  0  0  0  0  0  0  0  0  0  0
   33.7164   32.3612   34.5245 Cl  0  0  0  0  0  0  0  0  0  0  0  0
   34.0850   34.8600   37.6560 C   0  0  0  0  0  0  0  0  0  0  0  0
   35.0123   35.8477   38.1075 N   0  0  0  0  0  0  0  0  0  0  0  0
   34.8423   36.3424   38.9715 H   0  0  0  0  0  0  0  0  0  0  0  0
   35.8381   36.0515   37.5629 H   0  0  0  0  0  0  0  0  0  0  0  0
   30.5089   31.9379   35.2387 N   0  0  0  0  0  0  0  0  0  0  0  0
   30.6682   32.7481   34.6270 H   0  0  0  0  0  0  0  0  0  0  0  0
   31.2980   30.7938   36.9813 O   0  0  0  0  0  0  0  0  0  0  0  0
   34.3220   34.1720   36.4650 C   0  0  0  0  0  0  0  0  0  0  0  0
   35.1034   34.3541   35.9461 H   0  0  0  0  0  0  0  0  0  0  0  0
   27.8116   29.0535   33.8459 N   0  0  0  0  0  0  0  0  0  0  0  0
   33.4110   33.2050   36.0310 C   0  0  0  0  0  0  0  0  0  0  0  0
   32.2560   32.9420   36.7670 C   0  0  0  0  0  0  0  0  0  0  0  0
   32.0430   33.6060   37.9670 C   0  0  0  0  0  0  0  0  0  0  0  0
   32.9430   34.5780   38.4090 C   0  0  0  0  0  0  0  0  0  0  0  0
   32.7571   35.0900   39.3189 H   0  0  0  0  0  0  0  0  0  0  0  0
   31.3180   31.8470   36.3570 C   0  0  0  0  0  0  0  0  0  0  0  0
   29.5932   30.9583   34.8032 C   0  0  0  0  0  0  0  0  0  0  0  0
   29.3532   30.8298   33.4371 C   0  0  0  0  0  0  0  0  0  0  0  0
   29.8525   31.4499   32.7405 H   0  0  0  0  0  0  0  0  0  0  0  0
   28.4507   29.8667   33.0002 C   0  0  0  0  0  0  0  0  0  0  0  0
   28.2524   29.7557   31.9637 H   0  0  0  0  0  0  0  0  0  0  0  0
   28.0547   29.1747   35.1500 C   0  0  0  0  0  0  0  0  0  0  0  0
   27.3579   28.2663   35.9270 N   0  0  0  0  0  0  0  0  0  0  0  0
   27.8165   27.5596   36.9913 C   0  0  0  0  0  0  0  0  0  0  0  0
   26.4345   27.9846   35.5868 H   0  0  0  0  0  0  0  0  0  0  0  0
   28.9121   30.1315   35.6850 C   0  0  0  0  0  0  0  0  0  0  0  0
   29.0256   30.2347   36.7292 H   0  0  0  0  0  0  0  0  0  0  0  0
   27.0065   26.8261   37.5128 O   0  0  0  0  0  0  0  0  0  0  0  0
   30.3206   27.1916   36.5121 C   0  0  0  0  0  0  0  0  0  0  0  0
   31.2560   27.7363   36.5412 H   0  0  0  0  0  0  0  0  0  0  0  0
   29.9866   26.8182   35.5522 H   0  0  0  0  0  0  0  0  0  0  0  0
   29.2601   27.6567   37.4723 C   0  0  0  0  0  0  0  0  0  0  0  0
   29.4786   28.4941   38.1199 H   0  0  0  0  0  0  0  0  0  0  0  0
   29.9734   26.3567   37.7221 C   0  0  0  0  0  0  0  0  0  0  0  0
   29.4091   25.4497   37.5440 H   0  0  0  0  0  0  0  0  0  0  0  0
   30.6922   26.3510   38.5305 H   0  0  0  0  0  0  0  0  0  0  0  0
  1 15  1  0  0  0  0
  2 13  1  0  0  0  0
  3  4  1  0  0  0  0
  3 10  1  0  0  0  0
  3 16  2  0  0  0  0
  4  5  1  0  0  0  0
  4  6  1  0  0  0  0
  7  8  1  0  0  0  0
  7 18  1  0  0  0  0
  7 19  1  0  0  0  0
  9 18  2  0  0  0  0
 10 11  1  0  0  0  0
 10 13  2  0  0  0  0
 12 22  2  0  0  0  0
 12 24  1  0  0  0  0
 13 14  1  0  0  0  0
 14 15  2  0  0  0  0
 14 18  1  0  0  0  0
 15 16  1  0  0  0  0
 16 17  1  0  0  0  0
 19 20  2  0  0  0  0
 19 28  1  0  0  0  0
 20 21  1  0  0  0  0
 20 22  1  0  0  0  0
 22 23  1  0  0  0  0
 24 25  1  0  0  0  0
 24 28  2  0  0  0  0
 25 26  1  0  0  0  0
 25 27  1  0  0  0  0
 26 30  2  0  0  0  0
 26 34  1  0  0  0  0
 28 29  1  0  0  0  0
 31 32  1  0  0  0  0
 31 33  1  0  0  0  0
 31 34  1  0  0  0  0
 31 36  1  0  0  0  0
 34 35  1  0  0  0  0
 34 36  1  0  0  0  0
 36 37  1  0  0  0  0
 36 38  1  0  0  0  0
M  END
$$$$
tyk2_liang_jmc_05
  MOE2024           3D
tyk2_liang_jmc_05
 43 45  0  0  0  0  0  0  0  0999 V2000
   30.5840   33.2210   38.9240 Cl  0  0  0  0  0  0  0  0  0  0  0  0
   33.7164   32.3612   34.5245 Cl  0  0  0  0  0  0  0  0  0  0  0  0
   34.0850   34.8600   37.6560 C   0  0  0  0  0  0  0  0  0  0  0  0
   35.0123   35.8477   38.1075 N   0  0  0  0  0  0  0  0  0  0  0  0
   35.8381   36.0515   37.5629 H   0  0  0  0  0  0  0  0  0  0  0  0
   30.5089   31.9379   35.2387 N   0  0  0  0  0  0  0  0  0  0  0  0
   30.6682   32.7481   34.6270 H   0  0  0  0  0  0  0  0  0  0  0  0
   31.2980   30.7938   36.9813 O   0  0  0  0  0  0  0  0  0  0  0  0
   34.3220   34.1720   36.4650 C   0  0  0  0  0  0  0  0  0  0  0  0
   35.1034   34.3541   35.9461 H   0  0  0  0  0  0  0  0  0  0  0  0
   27.8116   29.0535   33.8459 N   0  0  0  0  0  0  0  0  0  0  0  0
   33.4110   33.2050   36.0310 C   0  0  0  0  0  0  0  0  0  0  0  0
   32.2560   32.9420   36.7670 C   0  0  0  0  0  0  0  0  0  0  0  0
   32.0430   33.6060   37.9670 C   0  0  0  0  0  0  0  0  0  0  0  0
   32.9430   34.5780   38.4090 C   0  0  0  0  0  0  0  0  0  0  0  0
   32.7571   35.0900   39.3189 H   0  0  0  0  0  0  0  0  0  0  0  0
   31.3180   31.8470   36.3570 C   0  0  0  0  0  0  0  0  0  0  0  0
   29.5932   30.9583   34.8032 C   0  0  0  0  0  0  0  0  0  0  0  0
   29.3532   30.8298   33.4371 C   0  0  0  0  0  0  0  0  0  0  0  0
   29.8525   31.4499   32.7405 H   0  0  0  0  0  0  0  0  0  0  0  0
   28.4507   29.8667   33.0002 C   0  0  0  0  0  0  0  0  0  0  0  0
   28.2524   29.7557   31.9637 H   0  0  0  0  0  0  0  0  0  0  0  0
   28.0547   29.1747   35.1500 C   0  0  0  0  0  0  0  0  0  0  0  0
   27.3579   28.2663   35.9270 N   0  0  0  0  0  0  0  0  0  0  0  0
   27.8165   27.5596   36.9913 C   0  0  0  0  0  0  0  0  0  0  0  0
   26.4345   27.9846   35.5868 H   0  0  0  0  0  0  0  0  0  0  0  0
   28.9121   30.1315   35.6850 C   0  0  0  0  0  0  0  0  0  0  0  0
   29.0256   30.2347   36.7292 H   0  0  0  0  0  0  0  0  0  0  0  0
   27.0065   26.8261   37.5128 O   0  0  0  0  0  0  0  0  0  0  0  0
   30.3206   27.1916   36.5121 C   0  0  0  0  0  0  0  0  0  0  0  0
   31.2560   27.7363   36.5412 H   0  0  0  0  0  0  0  0  0  0  0  0
   29.9866   26.8182   35.5522 H   0  0  0  0  0  0  0  0  0  0  0  0
   29.2601   27.6567   37.4723 C   0  0  0  0  0  0  0  0  0  0  0  0
   29.4786   28.4941   38.1199 H   0  0  0  0  0  0  0  0  0  0  0  0
   29.9734   26.3567   37.7221 C   0  0  0  0  0  0  0  0  0  0  0  0
   29.4091   25.4497   37.5440 H   0  0  0  0  0  0  0  0  0  0  0  0
   30.6922   26.3510   38.5305 H   0  0  0  0  0  0  0  0  0  0  0  0
   34.7834   36.5138   39.2709 C   0  0  0  0  0  0  0  0  0  0  0  0
   33.9891   35.8178   40.2321 C   0  0  0  0  0  0  0  0  0  0  0  0
   33.7046   34.8446   39.8320 H   0  0  0  0  0  0  0  0  0  0  0  0
   33.0921   36.3973   40.4502 H   0  0  0  0  0  0  0  0  0  0  0  0
   34.5644   35.6802   41.1476 H   0  0  0  0  0  0  0  0  0  0  0  0
   35.2299   37.6342   39.4803 O   0  0  0  0  0  0  0  0  0  0  0  0
  1 14  1  0  0  0  0
  2 12  1  0  0  0  0
  3  4  1  0  0  0  0
  3  9  1  0  0  0  0
  3 15  2  0  0  0  0
  4  5  1  0  0  0  0
  4 38  1  0  0  0  0
  6  7  1  0  0  0  0
  6 17  1  0  0  0  0
  6 18  1  0  0  0  0
  8 17  2  0  0  0  0
  9 10  1  0  0  0  0
  9 12  2  0  0  0  0
 11 21  2  0  0  0  0
 11 23  1  0  0  0  0
 12 13  1  0  0  0  0
 13 14  2  0  0  0  0
 13 17  1  0  0  0  0
 14 15  1  0  0  0  0
 15 16  1  0  0  0  0
 18 19  2  0  0  0  0
 18 27  1  0  0  0  0
 19 20  1  0  0  0  0
 19 21  1  0  0  0  0
 21 22  1  0  0  0  0
 23 24  1  0  0  0  0
 23 27  2  0  0  0  0
 24 25  1  0  0  0  0
 24 26  1  0  0  0  0
 25 29  2  0  0  0  0
 25 33  1  0  0  0  0
 27 28  1  0  0  0  0
 30 31  1  0  0  0  0
 30 32  1  0  0  0  0
 30 33  1  0  0  0  0
 30 35  1  0  0  0  0
 33 34  1  0  0  0  0
 33 35  1  0  0  0  0
 35 36  1  0  0  0  0
 35 37  1  0  0  0  0
 38 39  1  0  0  0  0
 38 43  2  0  0  0  0
 39 40  1  0  0  0  0
 39 41  1  0  0  0  0
 39 42  1  0  0  0  0
M  END
$$$$
tyk2_liang_jmc_06
  MOE2024           3D
tyk2_liang_jmc_06
 44 46  0  0  0  0  0  0  0  0999 V2000
   30.5840   33.2210   38.9240 Cl  0  0  0  0  0  0  0  0  0  0  0  0
   33.7164   32.3612   34.5245 Cl  0  0  0  0  0  0  0  0  0  0  0  0
   34.0850   34.8600   37.6560 C   0  0  0  0  0  0  0  0  0  0  0  0
   35.0123   35.8477   38.1075 N   0  0  0  0  0  0  0  0  0  0  0  0
   35.8381   36.0515   37.5629 H   0  0  0  0  0  0  0  0  0  0  0  0
   30.5089   31.9379   35.2387 N   0  0  0  0  0  0  0  0  0  0  0  0
   30.6682   32.7481   34.6270 H   0  0  0  0  0  0  0  0  0  0  0  0
   31.2980   30.7938   36.9813 O   0  0  0  0  0  0  0  0  0  0  0  0
   34.3220   34.1720   36.4650 C   0  0  0  0  0  0  0  0  0  0  0  0
   35.1034   34.3541   35.9461 H   0  0  0  0  0  0  0  0  0  0  0  0
   27.8116   29.0535   33.8459 N   0  0  0  0  0  0  0  0  0  0  0  0
   33.4110   33.2050   36.0310 C   0  0  0  0  0  0  0  0  0  0  0  0
   32.2560   32.9420   36.7670 C   0  0  0  0  0  0  0  0  0  0  0  0
   32.0430   33.6060   37.9670 C   0  0  0  0  0  0  0  0  0  0  0  0
   32.9430   34.5780   38.4090 C   0  0  0  0  0  0  0  0  0  0  0  0
   32.7571   35.0900   39.3189 H   0  0  0  0  0  0  0  0  0  0  0  0
   31.3180   31.8470   36.3570 C   0  0  0  0  0  0  0  0  0  0  0  0
   29.5932   30.9583   34.8032 C   0  0  0  0  0  0  0  0  0  0  0  0
   29.3532   30.8298   33.4371 C   0  0  0  0  0  0  0  0  0  0  0  0
   29.8525   31.4499   32.7405 H   0  0  0  0  0  0  0  0  0  0  0  0
   28.4507   29.8667   33.0002 C   0  0  0  0  0  0  0  0  0  0  0  0
   28.2524   29.7557   31.9637 H   0  0  0  0  0  0  0  0  0  0  0  0
   28.0547   29.1747   35.1500 C   0  0  0  0  0  0  0  0  0  0  0  0
   27.3579   28.2663   35.9270 N   0  0  0  0  0  0  0  0  0  0  0  0
   27.8165   27.5596   36.9913 C   0  0  0  0  0  0  0  0  0  0  0  0
   26.4345   27.9846   35.5868 H   0  0  0  0  0  0  0  0  0  0  0  0
   28.9121   30.1315   35.6850 C   0  0  0  0  0  0  0  0  0  0  0  0
   29.0256   30.2347   36.7292 H   0  0  0  0  0  0  0  0  0  0  0  0
   27.0065   26.8261   37.5128 O   0  0  0  0  0  0  0  0  0  0  0  0
   30.3206   27.1916   36.5121 C   0  0  0  0  0  0  0  0  0  0  0  0
   31.2560   27.7363   36.5412 H   0  0  0  0  0  0  0  0  0  0  0  0
   29.9866   26.8182   35.5522 H   0  0  0  0  0  0  0  0  0  0  0  0
   29.2601   27.6567   37.4723 C   0  0  0  0  0  0  0  0  0  0  0  0
   29.4786   28.4941   38.1199 H   0  0  0  0  0  0  0  0  0  0  0  0
   29.9734   26.3567   37.7221 C   0  0  0  0  0  0  0  0  0  0  0  0
   29.4091   25.4497   37.5440 H   0  0  0  0  0  0  0  0  0  0  0  0
   30.6922   26.3510   38.5305 H   0  0  0  0  0  0  0  0  0  0  0  0
   34.7262   36.6804   39.5618 S   0  0  0  0  0  0  0  0  0  0  0  0
   36.0996   37.8006   39.7741 C   0  0  0  0  0  0  0  0  0  0  0  0
   35.9687   38.3650   40.6974 H   0  0  0  0  0  0  0  0  0  0  0  0
   36.1408   38.4891   38.9301 H   0  0  0  0  0  0  0  0  0  0  0  0
   37.0280   37.2317   39.8246 H   0  0  0  0  0  0  0  0  0  0  0  0
   33.5311   37.4832   39.3784 O   0  0  0  0  0  0  0  0  0  0  0  0
   34.7823   35.7102   40.6397 O   0  0  0  0  0  0  0  0  0  0  0  0
  1 14  1  0  0  0  0
  2 12  1  0  0  0  0
  3  4  1  0  0  0  0
  3  9  1  0  0  0  0
  3 15  2  0  0  0  0
  4  5  1  0  0  0  0
  4 38  1  0  0  0  0
  6  7  1  0  0  0  0
  6 17  1  0  0  0  0
  6 18  1  0  0  0  0
  8 17  2  0  0  0  0
  9 10  1  0  0  0  0
  9 12  2  0  0  0  0
 11 21  2  0  0  0  0
 11 23  1  0  0  0  0
 12 13  1  0  0  0  0
 13 14  2  0  0  0  0
 13 17  1  0  0  0  0
 14 15  1  0  0  0  0
 15 16  1  0  0  0  0
 18 19  2  0  0  0  0
 18 27  1  0  0  0  0
 19 20  1  0  0  0  0
 19 21  1  0  0  0  0
 21 22  1  0  0  0  0
 23 24  1  0  0  0  0
 23 27  2  0  0  0  0
 24 25  1  0  0  0  0
 24 26  1  0  0  0  0
 25 29  2  0  0  0  0
 25 33  1  0  0  0  0
 27 28  1  0  0  0  0
 30 31  1  0  0  0  0
 30 32  1  0  0  0  0
 30 33  1  0  0  0  0
 30 35  1  0  0  0  0
 33 34  1  0  0  0  0
 33 35  1  0  0  0  0
 35 36  1  0  0  0  0
 35 37  1  0  0  0  0
 38 39  1  0  0  0  0
 38 43  2  0  0  0  0
 38 44  2  0  0  0  0
 39 40  1  0  0  0  0
 39 41  1  0  0  0  0
 39 42  1  0  0  0  0
M  END
$$$$
tyk2_liang_jmc_07
  MOE2024           3D
tyk2_liang_jmc_07
 37 39  0  0  0  0  0  0  0  0999 V2000
   30.5840   33.2210   38.9240 Cl  0  0  0  0  0  0  0  0  0  0  0  0
   33.7164   32.3612   34.5245 Cl  0  0  0  0  0  0  0  0  0  0  0  0
   34.0850   34.8600   37.6560 C   0  0  0  0  0  0  0  0  0  0  0  0
   35.0123   35.8477   38.1075 O   0  0  0  0  0  0  0  0  0  0  0  0
   34.7805   36.2729   38.9364 H   0  0  0  0  0  0  0  0  0  0  0  0
   30.5089   31.9379   35.2387 N   0  0  0  0  0  0  0  0  0  0  0  0
   30.6682   32.7481   34.6270 H   0  0  0  0  0  0  0  0  0  0  0  0
   31.2980   30.7938   36.9813 O   0  0  0  0  0  0  0  0  0  0  0  0
   34.3220   34.1720   36.4650 C   0  0  0  0  0  0  0  0  0  0  0  0
   35.1034   34.3541   35.9461 H   0  0  0  0  0  0  0  0  0  0  0  0
   27.8116   29.0535   33.8459 N   0  0  0  0  0  0  0  0  0  0  0  0
   33.4110   33.2050   36.0310 C   0  0  0  0  0  0  0  0  0  0  0  0
   32.2560   32.9420   36.7670 C   0  0  0  0  0  0  0  0  0  0  0  0
   32.0430   33.6060   37.9670 C   0  0  0  0  0  0  0  0  0  0  0  0
   32.9430   34.5780   38.4090 C   0  0  0  0  0  0  0  0  0  0  0  0
   32.7571   35.0900   39.3189 H   0  0  0  0  0  0  0  0  0  0  0  0
   31.3180   31.8470   36.3570 C   0  0  0  0  0  0  0  0  0  0  0  0
   29.5932   30.9583   34.8032 C   0  0  0  0  0  0  0  0  0  0  0  0
   29.3532   30.8298   33.4371 C   0  0  0  0  0  0  0  0  0  0  0  0
   29.8525   31.4499   32.7405 H   0  0  0  0  0  0  0  0  0  0  0  0
   28.4507   29.8667   33.0002 C   0  0  0  0  0  0  0  0  0  0  0  0
   28.2524   29.7557   31.9637 H   0  0  0  0  0  0  0  0  0  0  0  0
   28.0547   29.1747   35.1500 C   0  0  0  0  0  0  0  0  0  0  0  0
   27.3579   28.2663   35.9270 N   0  0  0  0  0  0  0  0  0  0  0  0
   27.8165   27.5596   36.9913 C   0  0  0  0  0  0  0  0  0  0  0  0
   26.4345   27.9846   35.5868 H   0  0  0  0  0  0  0  0  0  0  0  0
   28.9121   30.1315   35.6850 C   0  0  0  0  0  0  0  0  0  0  0  0
   29.0256   30.2347   36.7292 H   0  0  0  0  0  0  0  0  0  0  0  0
   27.0065   26.8261   37.5128 O   0  0  0  0  0  0  0  0  0  0  0  0
   30.3206   27.1916   36.5121 C   0  0  0  0  0  0  0  0  0  0  0  0
   31.2560   27.7363   36.5412 H   0  0  0  0  0  0  0  0  0  0  0  0
   29.9866   26.8182   35.5522 H   0  0  0  0  0  0  0  0  0  0  0  0
   29.2601   27.6567   37.4723 C   0  0  0  0  0  0  0  0  0  0  0  0
   29.4786   28.4941   38.1199 H   0  0  0  0  0  0  0  0  0  0  0  0
   29.9734   26.3567   37.7221 C   0  0  0  0  0  0  0  0  0  0  0  0
   29.4091   25.4497   37.5440 H   0  0  0  0  0  0  0  0  0  0  0  0
   30.6922   26.3510   38.5305 H   0  0  0  0  0  0  0  0  0  0  0  0
  1 14  1  0  0  0  0
  2 12  1  0  0  0  0
  3  4  1  0  0  0  0
  3  9  1  0  0  0  0
  3 15  2  0  0  0  0
  4  5  1  0  0  0  0
  6  7  1  0  0  0  0
  6 17  1  0  0  0  0
  6 18  1  0  0  0  0
  8 17  2  0  0  0  0
  9 10  1  0  0  0  0
  9 12  2  0  0  0  0
 11 21  2  0  0  0  0
 11 23  1  0  0  0  0
 12 13  1  0  0  0  0
 13 14  2  0  0  0  0
 13 17  1  0  0  0  0
 14 15  1  0  0  0  0
 15 16  1  0  0  0  0
 18 19  2  0  0  0  0
 18 27  1  0  0  0  0
 19 20  1  0  0  0  0
 19 21  1  0  0  0  0
 21 22  1  0  0  0  0
 23 24  1  0  0  0  0
 23 27  2  0  0  0  0
 24 25  1  0  0  0  0
 24 26  1  0  0  0  0
 25 29  2  0  0  0  0
 25 33  1  0  0  0  0
 27 28  1  0  0  0  0
 30 31  1  0  0  0  0
 30 32  1  0  0  0  0
 30 33  1  0  0  0  0
 30 35  1  0  0  0  0
 33 34  1  0  0  0  0
 33 35  1  0  0  0  0
 35 36  1  0  0  0  0
 35 37  1  0  0  0  0
M  END
$$$$
tyk2_liang_jmc_08
  MOE2024           3D
tyk2_liang_jmc_08
 40 42  0  0  0  0  0  0  0  0999 V2000
   30.5840   33.2210   38.9240 Cl  0  0  0  0  0  0  0  0  0  0  0  0
   33.7164   32.3612   34.5245 Cl  0  0  0  0  0  0  0  0  0  0  0  0
   34.0850   34.8600   37.6560 C   0  0  0  0  0  0  0  0  0  0  0  0
   35.0123   35.8477   38.1075 O   0  0  0  0  0  0  0  0  0  0  0  0
   34.6675   36.4803   39.3405 C   0  0  0  0  0  0  0  0  0  0  0  0
   35.4318   37.2132   39.5989 H   0  0  0  0  0  0  0  0  0  0  0  0
   34.6026   35.7297   40.1282 H   0  0  0  0  0  0  0  0  0  0  0  0
   33.7049   36.9808   39.2353 H   0  0  0  0  0  0  0  0  0  0  0  0
   30.5089   31.9379   35.2387 N   0  0  0  0  0  0  0  0  0  0  0  0
   30.6682   32.7481   34.6270 H   0  0  0  0  0  0  0  0  0  0  0  0
   31.2980   30.7938   36.9813 O   0  0  0  0  0  0  0  0  0  0  0  0
   34.3220   34.1720   36.4650 C   0  0  0  0  0  0  0  0  0  0  0  0
   35.1034   34.3541   35.9461 H   0  0  0  0  0  0  0  0  0  0  0  0
   27.8116   29.0535   33.8459 N   0  0  0  0  0  0  0  0  0  0  0  0
   33.4110   33.2050   36.0310 C   0  0  0  0  0  0  0  0  0  0  0  0
   32.2560   32.9420   36.7670 C   0  0  0  0  0  0  0  0  0  0  0  0
   32.0430   33.6060   37.9670 C   0  0  0  0  0  0  0  0  0  0  0  0
   32.9430   34.5780   38.4090 C   0  0  0  0  0  0  0  0  0  0  0  0
   32.7571   35.0900   39.3189 H   0  0  0  0  0  0  0  0  0  0  0  0
   31.3180   31.8470   36.3570 C   0  0  0  0  0  0  0  0  0  0  0  0
   29.5932   30.9583   34.8032 C   0  0  0  0  0  0  0  0  0  0  0  0
   29.3532   30.8298   33.4371 C   0  0  0  0  0  0  0  0  0  0  0  0
   29.8525   31.4499   32.7405 H   0  0  0  0  0  0  0  0  0  0  0  0
   28.4507   29.8667   33.0002 C   0  0  0  0  0  0  0  0  0  0  0  0
   28.2524   29.7557   31.9637 H   0  0  0  0  0  0  0  0  0  0  0  0
   28.0547   29.1747   35.1500 C   0  0  0  0  0  0  0  0  0  0  0  0
   27.3579   28.2663   35.9270 N   0  0  0  0  0  0  0  0  0  0  0  0
   27.8165   27.5596   36.9913 C   0  0  0  0  0  0  0  0  0  0  0  0
   26.4345   27.9846   35.5868 H   0  0  0  0  0  0  0  0  0  0  0  0
   28.9121   30.1315   35.6850 C   0  0  0  0  0  0  0  0  0  0  0  0
   29.0256   30.2347   36.7292 H   0  0  0  0  0  0  0  0  0  0  0  0
   27.0065   26.8261   37.5128 O   0  0  0  0  0  0  0  0  0  0  0  0
   30.3206   27.1916   36.5121 C   0  0  0  0  0  0  0  0  0  0  0  0
   31.2560   27.7363   36.5412 H   0  0  0  0  0  0  0  0  0  0  0  0
   29.9866   26.8182   35.5522 H   0  0  0  0  0  0  0  0  0  0  0  0
   29.2601   27.6567   37.4723 C   0  0  0  0  0  0  0  0  0  0  0  0
   29.4786   28.4941   38.1199 H   0  0  0  0  0  0  0  0  0  0  0  0
   29.9734   26.3567   37.7221 C   0  0  0  0  0  0  0  0  0  0  0  0
   29.4091   25.4497   37.5440 H   0  0  0  0  0  0  0  0  0  0  0  0
   30.6922   26.3510   38.5305 H   0  0  0  0  0  0  0  0  0  0  0  0
  1 17  1  0  0  0  0
  2 15  1  0  0  0  0
  3  4  1  0  0  0  0
  3 12  1  0  0  0  0
  3 18  2  0  0  0  0
  4  5  1  0  0  0  0
  5  6  1  0  0  0  0
  5  7  1  0  0  0  0
  5  8  1  0  0  0  0
  9 10  1  0  0  0  0
  9 20  1  0  0  0  0
  9 21  1  0  0  0  0
 11 20  2  0  0  0  0
 12 13  1  0  0  0  0
 12 15  2  0  0  0  0
 14 24  2  0  0  0  0
 14 26  1  0  0  0  0
 15 16  1  0  0  0  0
 16 17  2  0  0  0  0
 16 20  1  0  0  0  0
 17 18  1  0  0  0  0
 18 19  1  0  0  0  0
 21 22  2  0  0  0  0
 21 30  1  0  0  0  0
 22 23  1  0  0  0  0
 22 24  1  0  0  0  0
 24 25  1  0  0  0  0
 26 27  1  0  0  0  0
 26 30  2  0  0  0  0
 27 28  1  0  0  0  0
 27 29  1  0  0  0  0
 28 32  2  0  0  0  0
 28 36  1  0  0  0  0
 30 31  1  0  0  0  0
 33 34  1  0  0  0  0
 33 35  1  0  0  0  0
 33 36  1  0  0  0  0
 33 38  1  0  0  0  0
 36 37  1  0  0  0  0
 36 38  1  0  0  0  0
 38 39  1  0  0  0  0
 38 40  1  0  0  0  0
M  END
$$$$
tyk2_liang_jmc_09
  MOE2024           3D
tyk2_liang_jmc_09
 40 42  0  0  0  0  0  0  0  0999 V2000
   30.5840   33.2210   38.9240 Cl  0  0  0  0  0  0  0  0  0  0  0  0
   33.7164   32.3612   34.5245 Cl  0  0  0  0  0  0  0  0  0  0  0  0
   34.0850   34.8600   37.6560 C   0  0  0  0  0  0  0  0  0  0  0  0
   35.0123   35.8477   38.1075 C   0  0  0  0  0  0  0  0  0  0  0  0
   35.0851   36.6188   37.3406 H   0  0  0  0  0  0  0  0  0  0  0  0
   35.9828   35.3678   38.2335 H   0  0  0  0  0  0  0  0  0  0  0  0
   34.6675   36.4803   39.3405 O   0  0  0  0  0  0  0  0  0  0  0  0
   33.7049   36.9808   39.2353 H   0  0  0  0  0  0  0  0  0  0  0  0
   30.5089   31.9379   35.2387 N   0  0  0  0  0  0  0  0  0  0  0  0
   30.6682   32.7481   34.6270 H   0  0  0  0  0  0  0  0  0  0  0  0
   31.2980   30.7938   36.9813 O   0  0  0  0  0  0  0  0  0  0  0  0
   34.3220   34.1720   36.4650 C   0  0  0  0  0  0  0  0  0  0  0  0
   35.1034   34.3541   35.9461 H   0  0  0  0  0  0  0  0  0  0  0  0
   27.8116   29.0535   33.8459 N   0  0  0  0  0  0  0  0  0  0  0  0
   33.4110   33.2050   36.0310 C   0  0  0  0  0  0  0  0  0  0  0  0
   32.2560   32.9420   36.7670 C   0  0  0  0  0  0  0  0  0  0  0  0
   32.0430   33.6060   37.9670 C   0  0  0  0  0  0  0  0  0  0  0  0
   32.9430   34.5780   38.4090 C   0  0  0  0  0  0  0  0  0  0  0  0
   32.7571   35.0900   39.3189 H   0  0  0  0  0  0  0  0  0  0  0  0
   31.3180   31.8470   36.3570 C   0  0  0  0  0  0  0  0  0  0  0  0
   29.5932   30.9583   34.8032 C   0  0  0  0  0  0  0  0  0  0  0  0
   29.3532   30.8298   33.4371 C   0  0  0  0  0  0  0  0  0  0  0  0
   29.8525   31.4499   32.7405 H   0  0  0  0  0  0  0  0  0  0  0  0
   28.4507   29.8667   33.0002 C   0  0  0  0  0  0  0  0  0  0  0  0
   28.2524   29.7557   31.9637 H   0  0  0  0  0  0  0  0  0  0  0  0
   28.0547   29.1747   35.1500 C   0  0  0  0  0  0  0  0  0  0  0  0
   27.3579   28.2663   35.9270 N   0  0  0  0  0  0  0  0  0  0  0  0
   27.8165   27.5596   36.9913 C   0  0  0  0  0  0  0  0  0  0  0  0
   26.4345   27.9846   35.5868 H   0  0  0  0  0  0  0  0  0  0  0  0
   28.9121   30.1315   35.6850 C   0  0  0  0  0  0  0  0  0  0  0  0
   29.0256   30.2347   36.7292 H   0  0  0  0  0  0  0  0  0  0  0  0
   27.0065   26.8261   37.5128 O   0  0  0  0  0  0  0  0  0  0  0  0
   30.3206   27.1916   36.5121 C   0  0  0  0  0  0  0  0  0  0  0  0
   31.2560   27.7363   36.5412 H   0  0  0  0  0  0  0  0  0  0  0  0
   29.9866   26.8182   35.5522 H   0  0  0  0  0  0  0  0  0  0  0  0
   29.2601   27.6567   37.4723 C   0  0  0  0  0  0  0  0  0  0  0  0
   29.4786   28.4941   38.1199 H   0  0  0  0  0  0  0  0  0  0  0  0
   29.9734   26.3567   37.7221 C   0  0  0  0  0  0  0  0  0  0  0  0
   29.4091   25.4497   37.5440 H   0  0  0  0  0  0  0  0  0  0  0  0
   30.6922   26.3510   38.5305 H   0  0  0  0  0  0  0  0  0  0  0  0
  1 17  1  0  0  0  0
  2 15  1  0  0  0  0
  3  4  1  0  0  0  0
  3 12  1  0  0  0  0
  3 18  2  0  0  0  0
  4  5  1  0  0  0  0
  4  6  1  0  0  0  0
  4  7  1  0  0  0  0
  7  8  1  0  0  0  0
  9 10  1  0  0  0  0
  9 20  1  0  0  0  0
  9 21  1  0  0  0  0
 11 20  2  0  0  0  0
 12 13  1  0  0  0  0
 12 15  2  0  0  0  0
 14 24  2  0  0  0  0
 14 26  1  0  0  0  0
 15 16  1  0  0  0  0
 16 17  2  0  0  0  0
 16 20  1  0  0  0  0
 17 18  1  0  0  0  0
 18 19  1  0  0  0  0
 21 22  2  0  0  0  0
 21 30  1  0  0  0  0
 22 23  1  0  0  0  0
 22 24  1  0  0  0  0
 24 25  1  0  0  0  0
 26 27  1  0  0  0  0
 26 30  2  0  0  0  0
 27 28  1  0  0  0  0
 27 29  1  0  0  0  0
 28 32  2  0  0  0  0
 28 36  1  0  0  0  0
 30 31  1  0  0  0  0
 33 34  1  0  0  0  0
 33 35  1  0  0  0  0
 33 36  1  0  0  0  0
 33 38  1  0  0  0  0
 36 37  1  0  0  0  0
 36 38  1  0  0  0  0
 38 39  1  0  0  0  0
 38 40  1  0  0  0  0
M  END
$$$$
tyk2_liang_jmc_10_r
  MOE2024           3D
tyk2_liang_jmc_10_r
 43 45  0  0  1  0  0  0  0  0999 V2000
   30.5840   33.2210   38.9240 Cl  0  0  0  0  0  0  0  0  0  0  0  0
   33.7164   32.3612   34.5245 Cl  0  0  0  0  0  0  0  0  0  0  0  0
   34.0850   34.8600   37.6560 C   0  0  0  0  0  0  0  0  0  0  0  0
   35.0123   35.8477   38.1075 C   0  0  3  0  0  0  0  0  0  0  0  0
   35.1077   36.8579   37.1028 C   0  0  0  0  0  0  0  0  0  0  0  0
   34.1372   37.3378   36.9768 H   0  0  0  0  0  0  0  0  0  0  0  0
   35.4142   36.4049   36.1600 H   0  0  0  0  0  0  0  0  0  0  0  0
   35.8446   37.6022   37.4047 H   0  0  0  0  0  0  0  0  0  0  0  0
   35.9828   35.3678   38.2335 H   0  0  0  0  0  0  0  0  0  0  0  0
   34.6675   36.4803   39.3405 O   0  0  0  0  0  0  0  0  0  0  0  0
   33.7049   36.9808   39.2353 H   0  0  0  0  0  0  0  0  0  0  0  0
   30.5089   31.9379   35.2387 N   0  0  0  0  0  0  0  0  0  0  0  0
   30.6682   32.7481   34.6270 H   0  0  0  0  0  0  0  0  0  0  0  0
   31.2980   30.7938   36.9813 O   0  0  0  0  0  0  0  0  0  0  0  0
   34.3220   34.1720   36.4650 C   0  0  0  0  0  0  0  0  0  0  0  0
   35.1034   34.3541   35.9461 H   0  0  0  0  0  0  0  0  0  0  0  0
   27.8116   29.0535   33.8459 N   0  0  0  0  0  0  0  0  0  0  0  0
   33.4110   33.2050   36.0310 C   0  0  0  0  0  0  0  0  0  0  0  0
   32.2560   32.9420   36.7670 C   0  0  0  0  0  0  0  0  0  0  0  0
   32.0430   33.6060   37.9670 C   0  0  0  0  0  0  0  0  0  0  0  0
   32.9430   34.5780   38.4090 C   0  0  0  0  0  0  0  0  0  0  0  0
   32.7571   35.0900   39.3189 H   0  0  0  0  0  0  0  0  0  0  0  0
   31.3180   31.8470   36.3570 C   0  0  0  0  0  0  0  0  0  0  0  0
   29.5932   30.9583   34.8032 C   0  0  0  0  0  0  0  0  0  0  0  0
   29.3532   30.8298   33.4371 C   0  0  0  0  0  0  0  0  0  0  0  0
   29.8525   31.4499   32.7405 H   0  0  0  0  0  0  0  0  0  0  0  0
   28.4507   29.8667   33.0002 C   0  0  0  0  0  0  0  0  0  0  0  0
   28.2524   29.7557   31.9637 H   0  0  0  0  0  0  0  0  0  0  0  0
   28.0547   29.1747   35.1500 C   0  0  0  0  0  0  0  0  0  0  0  0
   27.3579   28.2663   35.9270 N   0  0  0  0  0  0  0  0  0  0  0  0
   27.8165   27.5596   36.9913 C   0  0  0  0  0  0  0  0  0  0  0  0
   26.4345   27.9846   35.5868 H   0  0  0  0  0  0  0  0  0  0  0  0
   28.9121   30.1315   35.6850 C   0  0  0  0  0  0  0  0  0  0  0  0
   29.0256   30.2347   36.7292 H   0  0  0  0  0  0  0  0  0  0  0  0
   27.0065   26.8261   37.5128 O   0  0  0  0  0  0  0  0  0  0  0  0
   30.3206   27.1916   36.5121 C   0  0  0  0  0  0  0  0  0  0  0  0
   31.2560   27.7363   36.5412 H   0  0  0  0  0  0  0  0  0  0  0  0
   29.9866   26.8182   35.5522 H   0  0  0  0  0  0  0  0  0  0  0  0
   29.2601   27.6567   37.4723 C   0  0  0  0  0  0  0  0  0  0  0  0
   29.4786   28.4941   38.1199 H   0  0  0  0  0  0  0  0  0  0  0  0
   29.9734   26.3567   37.7221 C   0  0  0  0  0  0  0  0  0  0  0  0
   29.4091   25.4497   37.5440 H   0  0  0  0  0  0  0  0  0  0  0  0
   30.6922   26.3510   38.5305 H   0  0  0  0  0  0  0  0  0  0  0  0
  1 20  1  0  0  0  0
  2 18  1  0  0  0  0
  3  4  1  0  0  0  0
  3 15  1  0  0  0  0
  3 21  2  0  0  0  0
  4  5  1  0  0  0  0
  4  9  1  0  0  0  0
  4 10  1  0  0  0  0
  5  6  1  0  0  0  0
  5  7  1  0  0  0  0
  5  8  1  0  0  0  0
 10 11  1  0  0  0  0
 12 13  1  0  0  0  0
 12 23  1  0  0  0  0
 12 24  1  0  0  0  0
 14 23  2  0  0  0  0
 15 16  1  0  0  0  0
 15 18  2  0  0  0  0
 17 27  2  0  0  0  0
 17 29  1  0  0  0  0
 18 19  1  0  0  0  0
 19 20  2  0  0  0  0
 19 23  1  0  0  0  0
 20 21  1  0  0  0  0
 21 22  1  0  0  0  0
 24 25  2  0  0  0  0
 24 33  1  0  0  0  0
 25 26  1  0  0  0  0
 25 27  1  0  0  0  0
 27 28  1  0  0  0  0
 29 30  1  0  0  0  0
 29 33  2  0  0  0  0
 30 31  1  0  0  0  0
 30 32  1  0  0  0  0
 31 35  2  0  0  0  0
 31 39  1  0  0  0  0
 33 34  1  0  0  0  0
 36 37  1  0  0  0  0
 36 38  1  0  0  0  0
 36 39  1  0  0  0  0
 36 41  1  0  0  0  0
 39 40  1  0  0  0  0
 39 41  1  0  0  0  0
 41 42  1  0  0  0  0
 41 43  1  0  0  0  0
M  END
$$$$
tyk2_liang_jmc_11
  MOE2024           3D
tyk2_liang_jmc_11
 46 48  0  0  0  0  0  0  0  0999 V2000
   30.5840   33.2210   38.9240 Cl  0  0  0  0  0  0  0  0  0  0  0  0
   33.7164   32.3612   34.5245 Cl  0  0  0  0  0  0  0  0  0  0  0  0
   34.0850   34.8600   37.6560 C   0  0  0  0  0  0  0  0  0  0  0  0
   35.0123   35.8477   38.1075 C   0  0  0  0  0  0  0  0  0  0  0  0
   36.2837   35.2189   38.2726 C   0  0  0  0  0  0  0  0  0  0  0  0
   36.2109   34.4478   39.0395 H   0  0  0  0  0  0  0  0  0  0  0  0
   37.0206   35.9632   38.5745 H   0  0  0  0  0  0  0  0  0  0  0  0
   36.5902   34.7659   37.3298 H   0  0  0  0  0  0  0  0  0  0  0  0
   35.1077   36.8579   37.1028 C   0  0  0  0  0  0  0  0  0  0  0  0
   35.3706   36.3988   36.1498 H   0  0  0  0  0  0  0  0  0  0  0  0
   35.8763   37.5780   37.3835 H   0  0  0  0  0  0  0  0  0  0  0  0
   34.1491   37.3680   37.0082 H   0  0  0  0  0  0  0  0  0  0  0  0
   34.6675   36.4803   39.3405 O   0  0  0  0  0  0  0  0  0  0  0  0
   33.7049   36.9808   39.2353 H   0  0  0  0  0  0  0  0  0  0  0  0
   30.5089   31.9379   35.2387 N   0  0  0  0  0  0  0  0  0  0  0  0
   30.6682   32.7481   34.6270 H   0  0  0  0  0  0  0  0  0  0  0  0
   31.2980   30.7938   36.9813 O   0  0  0  0  0  0  0  0  0  0  0  0
   34.3220   34.1720   36.4650 C   0  0  0  0  0  0  0  0  0  0  0  0
   35.1034   34.3541   35.9461 H   0  0  0  0  0  0  0  0  0  0  0  0
   27.8116   29.0535   33.8459 N   0  0  0  0  0  0  0  0  0  0  0  0
   33.4110   33.2050   36.0310 C   0  0  0  0  0  0  0  0  0  0  0  0
   32.2560   32.9420   36.7670 C   0  0  0  0  0  0  0  0  0  0  0  0
   32.0430   33.6060   37.9670 C   0  0  0  0  0  0  0  0  0  0  0  0
   32.9430   34.5780   38.4090 C   0  0  0  0  0  0  0  0  0  0  0  0
   32.7571   35.0900   39.3189 H   0  0  0  0  0  0  0  0  0  0  0  0
   31.3180   31.8470   36.3570 C   0  0  0  0  0  0  0  0  0  0  0  0
   29.5932   30.9583   34.8032 C   0  0  0  0  0  0  0  0  0  0  0  0
   29.3532   30.8298   33.4371 C   0  0  0  0  0  0  0  0  0  0  0  0
   29.8525   31.4499   32.7405 H   0  0  0  0  0  0  0  0  0  0  0  0
   28.4507   29.8667   33.0002 C   0  0  0  0  0  0  0  0  0  0  0  0
   28.2524   29.7557   31.9637 H   0  0  0  0  0  0  0  0  0  0  0  0
   28.0547   29.1747   35.1500 C   0  0  0  0  0  0  0  0  0  0  0  0
   27.3579   28.2663   35.9270 N   0  0  0  0  0  0  0  0  0  0  0  0
   27.8165   27.5596   36.9913 C   0  0  0  0  0  0  0  0  0  0  0  0
   26.4345   27.9846   35.5868 H   0  0  0  0  0  0  0  0  0  0  0  0
   28.9121   30.1315   35.6850 C   0  0  0  0  0  0  0  0  0  0  0  0
   29.0256   30.2347   36.7292 H   0  0  0  0  0  0  0  0  0  0  0  0
   27.0065   26.8261   37.5128 O   0  0  0  0  0  0  0  0  0  0  0  0
   30.3206   27.1916   36.5121 C   0  0  0  0  0  0  0  0  0  0  0  0
   31.2560   27.7363   36.5412 H   0  0  0  0  0  0  0  0  0  0  0  0
   29.9866   26.8182   35.5522 H   0  0  0  0  0  0  0  0  0  0  0  0
   29.2601   27.6567   37.4723 C   0  0  0  0  0  0  0  0  0  0  0  0
   29.4786   28.4941   38.1199 H   0  0  0  0  0  0  0  0  0  0  0  0
   29.9734   26.3567   37.7221 C   0  0  0  0  0  0  0  0  0  0  0  0
   29.4091   25.4497   37.5440 H   0  0  0  0  0  0  0  0  0  0  0  0
   30.6922   26.3510   38.5305 H   0  0  0  0  0  0  0  0  0  0  0  0
  1 23  1  0  0  0  0
  2 21  1  0  0  0  0
  3  4  1  0  0  0  0
  3 18  1  0  0  0  0
  3 24  2  0  0  0  0
  4  5  1  0  0  0  0
  4  9  1  0  0  0  0
  4 13  1  0  0  0  0
  5  6  1  0  0  0  0
  5  7  1  0  0  0  0
  5  8  1  0  0  0  0
  9 10  1  0  0  0  0
  9 11  1  0  0  0  0
  9 12  1  0  0  0  0
 13 14  1  0  0  0  0
 15 16  1  0  0  0  0
 15 26  1  0  0  0  0
 15 27  1  0  0  0  0
 17 26  2  0  0  0  0
 18 19  1  0  0  0  0
 18 21  2  0  0  0  0
 20 30  2  0  0  0  0
 20 32  1  0  0  0  0
 21 22  1  0  0  0  0
 22 23  2  0  0  0  0
 22 26  1  0  0  0  0
 23 24  1  0  0  0  0
 24 25  1  0  0  0  0
 27 28  2  0  0  0  0
 27 36  1  0  0  0  0
 28 29  1  0  0  0  0
 28 30  1  0  0  0  0
 30 31  1  0  0  0  0
 32 33  1  0  0  0  0
 32 36  2  0  0  0  0
 33 34  1  0  0  0  0
 33 35  1  0  0  0  0
 34 38  2  0  0  0  0
 34 42  1  0  0  0  0
 36 37  1  0  0  0  0
 39 40  1  0  0  0  0
 39 41  1  0  0  0  0
 39 42  1  0  0  0  0
 39 44  1  0  0  0  0
 42 43  1  0  0  0  0
 42 44  1  0  0  0  0
 44 45  1  0  0  0  0
 44 46  1  0  0  0  0
M  END
$$$$
tyk2_liang_jmc_12
  MOE2024           3D
tyk2_liang_jmc_12
 42 44  0  0  0  0  0  0  0  0999 V2000
   30.5840   33.2210   38.9240 Cl  0  0  0  0  0  0  0  0  0  0  0  0
   33.7164   32.3612   34.5245 Cl  0  0  0  0  0  0  0  0  0  0  0  0
   34.0850   34.8600   37.6560 C   0  0  0  0  0  0  0  0  0  0  0  0
   30.5089   31.9379   35.2387 N   0  0  0  0  0  0  0  0  0  0  0  0
   30.6682   32.7481   34.6270 H   0  0  0  0  0  0  0  0  0  0  0  0
   31.2980   30.7938   36.9813 O   0  0  0  0  0  0  0  0  0  0  0  0
   34.3220   34.1720   36.4650 C   0  0  0  0  0  0  0  0  0  0  0  0
   35.1034   34.3541   35.9461 H   0  0  0  0  0  0  0  0  0  0  0  0
   27.8116   29.0535   33.8459 N   0  0  0  0  0  0  0  0  0  0  0  0
   33.4110   33.2050   36.0310 C   0  0  0  0  0  0  0  0  0  0  0  0
   32.2560   32.9420   36.7670 C   0  0  0  0  0  0  0  0  0  0  0  0
   32.0430   33.6060   37.9670 C   0  0  0  0  0  0  0  0  0  0  0  0
   32.9430   34.5780   38.4090 C   0  0  0  0  0  0  0  0  0  0  0  0
   32.7571   35.0900   39.3189 H   0  0  0  0  0  0  0  0  0  0  0  0
   31.3180   31.8470   36.3570 C   0  0  0  0  0  0  0  0  0  0  0  0
   29.5932   30.9583   34.8032 C   0  0  0  0  0  0  0  0  0  0  0  0
   29.3532   30.8298   33.4371 C   0  0  0  0  0  0  0  0  0  0  0  0
   29.8525   31.4499   32.7405 H   0  0  0  0  0  0  0  0  0  0  0  0
   28.4507   29.8667   33.0002 C   0  0  0  0  0  0  0  0  0  0  0  0
   28.2524   29.7557   31.9637 H   0  0  0  0  0  0  0  0  0  0  0  0
   28.0547   29.1747   35.1500 C   0  0  0  0  0  0  0  0  0  0  0  0
   27.3579   28.2663   35.9270 N   0  0  0  0  0  0  0  0  0  0  0  0
   27.8165   27.5596   36.9913 C   0  0  0  0  0  0  0  0  0  0  0  0
   26.4345   27.9846   35.5868 H   0  0  0  0  0  0  0  0  0  0  0  0
   28.9121   30.1315   35.6850 C   0  0  0  0  0  0  0  0  0  0  0  0
   29.0256   30.2347   36.7292 H   0  0  0  0  0  0  0  0  0  0  0  0
   27.0065   26.8261   37.5128 O   0  0  0  0  0  0  0  0  0  0  0  0
   30.3206   27.1916   36.5121 C   0  0  0  0  0  0  0  0  0  0  0  0
   31.2560   27.7363   36.5412 H   0  0  0  0  0  0  0  0  0  0  0  0
   29.9866   26.8182   35.5522 H   0  0  0  0  0  0  0  0  0  0  0  0
   29.2601   27.6567   37.4723 C   0  0  0  0  0  0  0  0  0  0  0  0
   29.4786   28.4941   38.1199 H   0  0  0  0  0  0  0  0  0  0  0  0
   29.9734   26.3567   37.7221 C   0  0  0  0  0  0  0  0  0  0  0  0
   29.4091   25.4497   37.5440 H   0  0  0  0  0  0  0  0  0  0  0  0
   30.6922   26.3510   38.5305 H   0  0  0  0  0  0  0  0  0  0  0  0
   34.9655   35.8044   38.0830 C   0  0  0  0  0  0  0  0  0  0  0  0
   35.8901   36.7960   38.5314 C   0  0  0  0  0  0  0  0  0  0  0  0
   36.8146   37.7877   38.9798 C   0  0  0  0  0  0  0  0  0  0  0  0
   36.9041   37.7368   40.0650 H   0  0  0  0  0  0  0  0  0  0  0  0
   36.4564   38.7757   38.6907 H   0  0  0  0  0  0  0  0  0  0  0  0
   38.0914   37.5515   38.3854 O   0  0  0  0  0  0  0  0  0  0  0  0
   38.3807   36.6773   38.6567 H   0  0  0  0  0  0  0  0  0  0  0  0
  1 12  1  0  0  0  0
  2 10  1  0  0  0  0
  3  7  1  0  0  0  0
  3 13  2  0  0  0  0
  3 36  1  0  0  0  0
  4  5  1  0  0  0  0
  4 15  1  0  0  0  0
  4 16  1  0  0  0  0
  6 15  2  0  0  0  0
  7  8  1  0  0  0  0
  7 10  2  0  0  0  0
  9 19  2  0  0  0  0
  9 21  1  0  0  0  0
 10 11  1  0  0  0  0
 11 12  2  0  0  0  0
 11 15  1  0  0  0  0
 12 13  1  0  0  0  0
 13 14  1  0  0  0  0
 16 17  2  0  0  0  0
 16 25  1  0  0  0  0
 17 18  1  0  0  0  0
 17 19  1  0  0  0  0
 19 20  1  0  0  0  0
 21 22  1  0  0  0  0
 21 25  2  0  0  0  0
 22 23  1  0  0  0  0
 22 24  1  0  0  0  0
 23 27  2  0  0  0  0
 23 31  1  0  0  0  0
 25 26  1  0  0  0  0
 28 29  1  0  0  0  0
 28 30  1  0  0  0  0
 28 31  1  0  0  0  0
 28 33  1  0  0  0  0
 31 32  1  0  0  0  0
 31 33  1  0  0  0  0
 33 34  1  0  0  0  0
 33 35  1  0  0  0  0
 36 37  3  0  0  0  0
 37 38  1  0  0  0  0
 38 39  1  0  0  0  0
 38 40  1  0  0  0  0
 38 41  1  0  0  0  0
 41 42  1  0  0  0  0
M  END
$$$$
tyk2_liang_jmc_13
  MOE2024           3D
tyk2_liang_jmc_13
 41 43  0  0  0  0  0  0  0  0999 V2000
   30.5840   33.2210   38.9240 Cl  0  0  0  0  0  0  0  0  0  0  0  0
   33.7164   32.3612   34.5245 Cl  0  0  0  0  0  0  0  0  0  0  0  0
   34.0850   34.8600   37.6560 C   0  0  0  0  0  0  0  0  0  0  0  0
   35.0096   35.8516   38.1044 C   0  0  0  0  0  0  0  0  0  0  0  0
   34.6588   36.2766   39.0448 H   0  0  0  0  0  0  0  0  0  0  0  0
   35.1121   36.8848   37.1240 N   0  0  0  0  0  0  0  0  0  0  0  0
   34.2057   37.3080   36.9849 H   0  0  0  0  0  0  0  0  0  0  0  0
   35.4371   36.4910   36.2526 H   0  0  0  0  0  0  0  0  0  0  0  0
   35.9878   35.3949   38.2546 H   0  0  0  0  0  0  0  0  0  0  0  0
   30.5089   31.9379   35.2387 N   0  0  0  0  0  0  0  0  0  0  0  0
   30.6682   32.7481   34.6270 H   0  0  0  0  0  0  0  0  0  0  0  0
   31.2980   30.7938   36.9813 O   0  0  0  0  0  0  0  0  0  0  0  0
   34.3220   34.1720   36.4650 C   0  0  0  0  0  0  0  0  0  0  0  0
   35.1034   34.3541   35.9461 H   0  0  0  0  0  0  0  0  0  0  0  0
   27.8116   29.0535   33.8459 N   0  0  0  0  0  0  0  0  0  0  0  0
   33.4110   33.2050   36.0310 C   0  0  0  0  0  0  0  0  0  0  0  0
   32.2560   32.9420   36.7670 C   0  0  0  0  0  0  0  0  0  0  0  0
   32.0430   33.6060   37.9670 C   0  0  0  0  0  0  0  0  0  0  0  0
   32.9430   34.5780   38.4090 C   0  0  0  0  0  0  0  0  0  0  0  0
   32.7571   35.0900   39.3189 H   0  0  0  0  0  0  0  0  0  0  0  0
   31.3180   31.8470   36.3570 C   0  0  0  0  0  0  0  0  0  0  0  0
   29.5932   30.9583   34.8032 C   0  0  0  0  0  0  0  0  0  0  0  0
   29.3532   30.8298   33.4371 C   0  0  0  0  0  0  0  0  0  0  0  0
   29.8525   31.4499   32.7405 H   0  0  0  0  0  0  0  0  0  0  0  0
   28.4507   29.8667   33.0002 C   0  0  0  0  0  0  0  0  0  0  0  0
   28.2524   29.7557   31.9637 H   0  0  0  0  0  0  0  0  0  0  0  0
   28.0547   29.1747   35.1500 C   0  0  0  0  0  0  0  0  0  0  0  0
   27.3579   28.2663   35.9270 N   0  0  0  0  0  0  0  0  0  0  0  0
   27.8165   27.5596   36.9913 C   0  0  0  0  0  0  0  0  0  0  0  0
   26.4345   27.9846   35.5868 H   0  0  0  0  0  0  0  0  0  0  0  0
   28.9121   30.1315   35.6850 C   0  0  0  0  0  0  0  0  0  0  0  0
   29.0256   30.2347   36.7292 H   0  0  0  0  0  0  0  0  0  0  0  0
   27.0065   26.8261   37.5128 O   0  0  0  0  0  0  0  0  0  0  0  0
   30.3206   27.1916   36.5121 C   0  0  0  0  0  0  0  0  0  0  0  0
   31.2560   27.7363   36.5412 H   0  0  0  0  0  0  0  0  0  0  0  0
   29.9866   26.8182   35.5522 H   0  0  0  0  0  0  0  0  0  0  0  0
   29.2601   27.6567   37.4723 C   0  0  0  0  0  0  0  0  0  0  0  0
   29.4786   28.4941   38.1199 H   0  0  0  0  0  0  0  0  0  0  0  0
   29.9734   26.3567   37.7221 C   0  0  0  0  0  0  0  0  0  0  0  0
   29.4091   25.4497   37.5440 H   0  0  0  0  0  0  0  0  0  0  0  0
   30.6922   26.3510   38.5305 H   0  0  0  0  0  0  0  0  0  0  0  0
  1 18  1  0  0  0  0
  2 16  1  0  0  0  0
  3  4  1  0  0  0  0
  3 13  1  0  0  0  0
  3 19  2  0  0  0  0
  4  5  1  0  0  0  0
  4  6  1  0  0  0  0
  4  9  1  0  0  0  0
  6  7  1  0  0  0  0
  6  8  1  0  0  0  0
 10 11  1  0  0  0  0
 10 21  1  0  0  0  0
 10 22  1  0  0  0  0
 12 21  2  0  0  0  0
 13 14  1  0  0  0  0
 13 16  2  0  0  0  0
 15 25  2  0  0  0  0
 15 27  1  0  0  0  0
 16 17  1  0  0  0  0
 17 18  2  0  0  0  0
 17 21  1  0  0  0  0
 18 19  1  0  0  0  0
 19 20  1  0  0  0  0
 22 23  2  0  0  0  0
 22 31  1  0  0  0  0
 23 24  1  0  0  0  0
 23 25  1  0  0  0  0
 25 26  1  0  0  0  0
 27 28  1  0  0  0  0
 27 31  2  0  0  0  0
 28 29  1  0  0  0  0
 28 30  1  0  0  0  0
 29 33  2  0  0  0  0
 29 37  1  0  0  0  0
 31 32  1  0  0  0  0
 34 35  1  0  0  0  0
 34 36  1  0  0  0  0
 34 37  1  0  0  0  0
 34 39  1  0  0  0  0
 37 38  1  0  0  0  0
 37 39  1  0  0  0  0
 39 40  1  0  0  0  0
 39 41  1  0  0  0  0
M  END
$$$$
tyk2_liang_jmc_14
  MOE2024           3D
tyk2_liang_jmc_14
 44 46  0  0  0  0  0  0  0  0999 V2000
   30.5840   33.2210   38.9240 Cl  0  0  0  0  0  0  0  0  0  0  0  0
   33.7164   32.3612   34.5245 Cl  0  0  0  0  0  0  0  0  0  0  0  0
   34.0850   34.8600   37.6560 C   0  0  0  0  0  0  0  0  0  0  0  0
   35.0096   35.8516   38.1044 C   0  0  0  0  0  0  0  0  0  0  0  0
   34.6588   36.2766   39.0448 H   0  0  0  0  0  0  0  0  0  0  0  0
   35.1121   36.8848   37.1240 N   0  0  0  0  0  0  0  0  0  0  0  0
   34.2057   37.3080   36.9849 H   0  0  0  0  0  0  0  0  0  0  0  0
   35.5716   36.3280   35.8919 C   0  0  0  0  0  0  0  0  0  0  0  0
   36.5499   35.8713   36.0421 H   0  0  0  0  0  0  0  0  0  0  0  0
   35.6499   37.1167   35.1436 H   0  0  0  0  0  0  0  0  0  0  0  0
   34.8660   35.5711   35.5496 H   0  0  0  0  0  0  0  0  0  0  0  0
   35.9878   35.3949   38.2546 H   0  0  0  0  0  0  0  0  0  0  0  0
   30.5089   31.9379   35.2387 N   0  0  0  0  0  0  0  0  0  0  0  0
   30.6682   32.7481   34.6270 H   0  0  0  0  0  0  0  0  0  0  0  0
   31.2980   30.7938   36.9813 O   0  0  0  0  0  0  0  0  0  0  0  0
   34.3220   34.1720   36.4650 C   0  0  0  0  0  0  0  0  0  0  0  0
   35.1034   34.3541   35.9461 H   0  0  0  0  0  0  0  0  0  0  0  0
   27.8116   29.0535   33.8459 N   0  0  0  0  0  0  0  0  0  0  0  0
   33.4110   33.2050   36.0310 C   0  0  0  0  0  0  0  0  0  0  0  0
   32.2560   32.9420   36.7670 C   0  0  0  0  0  0  0  0  0  0  0  0
   32.0430   33.6060   37.9670 C   0  0  0  0  0  0  0  0  0  0  0  0
   32.9430   34.5780   38.4090 C   0  0  0  0  0  0  0  0  0  0  0  0
   32.7571   35.0900   39.3189 H   0  0  0  0  0  0  0  0  0  0  0  0
   31.3180   31.8470   36.3570 C   0  0  0  0  0  0  0  0  0  0  0  0
   29.5932   30.9583   34.8032 C   0  0  0  0  0  0  0  0  0  0  0  0
   29.3532   30.8298   33.4371 C   0  0  0  0  0  0  0  0  0  0  0  0
   29.8525   31.4499   32.7405 H   0  0  0  0  0  0  0  0  0  0  0  0
   28.4507   29.8667   33.0002 C   0  0  0  0  0  0  0  0  0  0  0  0
   28.2524   29.7557   31.9637 H   0  0  0  0  0  0  0  0  0  0  0  0
   28.0547   29.1747   35.1500 C   0  0  0  0  0  0  0  0  0  0  0  0
   27.3579   28.2663   35.9270 N   0  0  0  0  0  0  0  0  0  0  0  0
   27.8165   27.5596   36.9913 C   0  0  0  0  0  0  0  0  0  0  0  0
   26.4345   27.9846   35.5868 H   0  0  0  0  0  0  0  0  0  0  0  0
   28.9121   30.1315   35.6850 C   0  0  0  0  0  0  0  0  0  0  0  0
   29.0256   30.2347   36.7292 H   0  0  0  0  0  0  0  0  0  0  0  0
   27.0065   26.8261   37.5128 O   0  0  0  0  0  0  0  0  0  0  0  0
   30.3206   27.1916   36.5121 C   0  0  0  0  0  0  0  0  0  0  0  0
   31.2560   27.7363   36.5412 H   0  0  0  0  0  0  0  0  0  0  0  0
   29.9866   26.8182   35.5522 H   0  0  0  0  0  0  0  0  0  0  0  0
   29.2601   27.6567   37.4723 C   0  0  0  0  0  0  0  0  0  0  0  0
   29.4786   28.4941   38.1199 H   0  0  0  0  0  0  0  0  0  0  0  0
   29.9734   26.3567   37.7221 C   0  0  0  0  0  0  0  0  0  0  0  0
   29.4091   25.4497   37.5440 H   0  0  0  0  0  0  0  0  0  0  0  0
   30.6922   26.3510   38.5305 H   0  0  0  0  0  0  0  0  0  0  0  0
  1 21  1  0  0  0  0
  2 19  1  0  0  0  0
  3  4  1  0  0  0  0
  3 16  1  0  0  0  0
  3 22  2  0  0  0  0
  4  5  1  0  0  0  0
  4  6  1  0  0  0  0
  4 12  1  0  0  0  0
  6  7  1  0  0  0  0
  6  8  1  0  0  0  0
  8  9  1  0  0  0  0
  8 10  1  0  0  0  0
  8 11  1  0  0  0  0
 13 14  1  0  0  0  0
 13 24  1  0  0  0  0
 13 25  1  0  0  0  0
 15 24  2  0  0  0  0
 16 17  1  0  0  0  0
 16 19  2  0  0  0  0
 18 28  2  0  0  0  0
 18 30  1  0  0  0  0
 19 20  1  0  0  0  0
 20 21  2  0  0  0  0
 20 24  1  0  0  0  0
 21 22  1  0  0  0  0
 22 23  1  0  0  0  0
 25 26  2  0  0  0  0
 25 34  1  0  0  0  0
 26 27  1  0  0  0  0
 26 28  1  0  0  0  0
 28 29  1  0  0  0  0
 30 31  1  0  0  0  0
 30 34  2  0  0  0  0
 31 32  1  0  0  0  0
 31 33  1  0  0  0  0
 32 36  2  0  0  0  0
 32 40  1  0  0  0  0
 34 35  1  0  0  0  0
 37 38  1  0  0  0  0
 37 39  1  0  0  0  0
 37 40  1  0  0  0  0
 37 42  1  0  0  0  0
 40 41  1  0  0  0  0
 40 42  1  0  0  0  0
 42 43  1  0  0  0  0
 42 44  1  0  0  0  0
M  END
$$$$
tyk2_liang_jmc_15
  MOE2024           3D
tyk2_liang_jmc_15
 47 49  0  0  0  0  0  0  0  0999 V2000
   30.5840   33.2210   38.9240 Cl  0  0  0  0  0  0  0  0  0  0  0  0
   33.7164   32.3612   34.5245 Cl  0  0  0  0  0  0  0  0  0  0  0  0
   34.0850   34.8600   37.6560 C   0  0  0  0  0  0  0  0  0  0  0  0
   35.0096   35.8516   38.1044 C   0  0  0  0  0  0  0  0  0  0  0  0
   34.6588   36.2766   39.0448 H   0  0  0  0  0  0  0  0  0  0  0  0
   35.1121   36.8848   37.1240 N   0  0  0  0  0  0  0  0  0  0  0  0
   33.8305   37.4832   36.9273 C   0  0  0  0  0  0  0  0  0  0  0  0
   33.4798   37.9082   37.8677 H   0  0  0  0  0  0  0  0  0  0  0  0
   33.1248   36.7263   36.5850 H   0  0  0  0  0  0  0  0  0  0  0  0
   33.9087   38.2718   36.1789 H   0  0  0  0  0  0  0  0  0  0  0  0
   35.5716   36.3280   35.8919 C   0  0  0  0  0  0  0  0  0  0  0  0
   36.5499   35.8713   36.0421 H   0  0  0  0  0  0  0  0  0  0  0  0
   35.6499   37.1167   35.1436 H   0  0  0  0  0  0  0  0  0  0  0  0
   34.8660   35.5711   35.5496 H   0  0  0  0  0  0  0  0  0  0  0  0
   35.9878   35.3949   38.2546 H   0  0  0  0  0  0  0  0  0  0  0  0
   30.5089   31.9379   35.2387 N   0  0  0  0  0  0  0  0  0  0  0  0
   30.6682   32.7481   34.6270 H   0  0  0  0  0  0  0  0  0  0  0  0
   31.2980   30.7938   36.9813 O   0  0  0  0  0  0  0  0  0  0  0  0
   34.3220   34.1720   36.4650 C   0  0  0  0  0  0  0  0  0  0  0  0
   35.1034   34.3541   35.9461 H   0  0  0  0  0  0  0  0  0  0  0  0
   27.8116   29.0535   33.8459 N   0  0  0  0  0  0  0  0  0  0  0  0
   33.4110   33.2050   36.0310 C   0  0  0  0  0  0  0  0  0  0  0  0
   32.2560   32.9420   36.7670 C   0  0  0  0  0  0  0  0  0  0  0  0
   32.0430   33.6060   37.9670 C   0  0  0  0  0  0  0  0  0  0  0  0
   32.9430   34.5780   38.4090 C   0  0  0  0  0  0  0  0  0  0  0  0
   32.7571   35.0900   39.3189 H   0  0  0  0  0  0  0  0  0  0  0  0
   31.3180   31.8470   36.3570 C   0  0  0  0  0  0  0  0  0  0  0  0
   29.5932   30.9583   34.8032 C   0  0  0  0  0  0  0  0  0  0  0  0
   29.3532   30.8298   33.4371 C   0  0  0  0  0  0  0  0  0  0  0  0
   29.8525   31.4499   32.7405 H   0  0  0  0  0  0  0  0  0  0  0  0
   28.4507   29.8667   33.0002 C   0  0  0  0  0  0  0  0  0  0  0  0
   28.2524   29.7557   31.9637 H   0  0  0  0  0  0  0  0  0  0  0  0
   28.0547   29.1747   35.1500 C   0  0  0  0  0  0  0  0  0  0  0  0
   27.3579   28.2663   35.9270 N   0  0  0  0  0  0  0  0  0  0  0  0
   27.8165   27.5596   36.9913 C   0  0  0  0  0  0  0  0  0  0  0  0
   26.4345   27.9846   35.5868 H   0  0  0  0  0  0  0  0  0  0  0  0
   28.9121   30.1315   35.6850 C   0  0  0  0  0  0  0  0  0  0  0  0
   29.0256   30.2347   36.7292 H   0  0  0  0  0  0  0  0  0  0  0  0
   27.0065   26.8261   37.5128 O   0  0  0  0  0  0  0  0  0  0  0  0
   30.3206   27.1916   36.5121 C   0  0  0  0  0  0  0  0  0  0  0  0
   31.2560   27.7363   36.5412 H   0  0  0  0  0  0  0  0  0  0  0  0
   29.9866   26.8182   35.5522 H   0  0  0  0  0  0  0  0  0  0  0  0
   29.2601   27.6567   37.4723 C   0  0  0  0  0  0  0  0  0  0  0  0
   29.4786   28.4941   38.1199 H   0  0  0  0  0  0  0  0  0  0  0  0
   29.9734   26.3567   37.7221 C   0  0  0  0  0  0  0  0  0  0  0  0
   29.4091   25.4497   37.5440 H   0  0  0  0  0  0  0  0  0  0  0  0
   30.6922   26.3510   38.5305 H   0  0  0  0  0  0  0  0  0  0  0  0
  1 24  1  0  0  0  0
  2 22  1  0  0  0  0
  3  4  1  0  0  0  0
  3 19  1  0  0  0  0
  3 25  2  0  0  0  0
  4  5  1  0  0  0  0
  4  6  1  0  0  0  0
  4 15  1  0  0  0  0
  6  7  1  0  0  0  0
  6 11  1  0  0  0  0
  7  8  1  0  0  0  0
  7  9  1  0  0  0  0
  7 10  1  0  0  0  0
 11 12  1  0  0  0  0
 11 13  1  0  0  0  0
 11 14  1  0  0  0  0
 16 17  1  0  0  0  0
 16 27  1  0  0  0  0
 16 28  1  0  0  0  0
 18 27  2  0  0  0  0
 19 20  1  0  0  0  0
 19 22  2  0  0  0  0
 21 31  2  0  0  0  0
 21 33  1  0  0  0  0
 22 23  1  0  0  0  0
 23 24  2  0  0  0  0
 23 27  1  0  0  0  0
 24 25  1  0  0  0  0
 25 26  1  0  0  0  0
 28 29  2  0  0  0  0
 28 37  1  0  0  0  0
 29 30  1  0  0  0  0
 29 31  1  0  0  0  0
 31 32  1  0  0  0  0
 33 34  1  0  0  0  0
 33 37  2  0  0  0  0
 34 35  1  0  0  0  0
 34 36  1  0  0  0  0
 35 39  2  0  0  0  0
 35 43  1  0  0  0  0
 37 38  1  0  0  0  0
 40 41  1  0  0  0  0
 40 42  1  0  0  0  0
 40 43  1  0  0  0  0
 40 45  1  0  0  0  0
 43 44  1  0  0  0  0
 43 45  1  0  0  0  0
 45 46  1  0  0  0  0
 45 47  1  0  0  0  0
M  END
$$$$
tyk2_liang_jmc_16
  MOE2024           3D
tyk2_liang_jmc_16
 52 55  0  0  0  0  0  0  0  0999 V2000
   30.5840   33.2210   38.9240 Cl  0  0  0  0  0  0  0  0  0  0  0  0
   33.7164   32.3612   34.5245 Cl  0  0  0  0  0  0  0  0  0  0  0  0
   34.0850   34.8600   37.6560 C   0  0  0  0  0  0  0  0  0  0  0  0
   35.0123   35.8477   38.1075 C   0  0  0  0  0  0  0  0  0  0  0  0
   35.4046   35.5589   39.0826 H   0  0  0  0  0  0  0  0  0  0  0  0
   34.5069   36.8099   38.1897 H   0  0  0  0  0  0  0  0  0  0  0  0
   30.5089   31.9379   35.2387 N   0  0  0  0  0  0  0  0  0  0  0  0
   30.6682   32.7481   34.6270 H   0  0  0  0  0  0  0  0  0  0  0  0
   31.2980   30.7938   36.9813 O   0  0  0  0  0  0  0  0  0  0  0  0
   34.3220   34.1720   36.4650 C   0  0  0  0  0  0  0  0  0  0  0  0
   35.1034   34.3541   35.9461 H   0  0  0  0  0  0  0  0  0  0  0  0
   27.8116   29.0535   33.8459 N   0  0  0  0  0  0  0  0  0  0  0  0
   33.4110   33.2050   36.0310 C   0  0  0  0  0  0  0  0  0  0  0  0
   32.2560   32.9420   36.7670 C   0  0  0  0  0  0  0  0  0  0  0  0
   32.0430   33.6060   37.9670 C   0  0  0  0  0  0  0  0  0  0  0  0
   32.9430   34.5780   38.4090 C   0  0  0  0  0  0  0  0  0  0  0  0
   32.7571   35.0900   39.3189 H   0  0  0  0  0  0  0  0  0  0  0  0
   31.3180   31.8470   36.3570 C   0  0  0  0  0  0  0  0  0  0  0  0
   29.5932   30.9583   34.8032 C   0  0  0  0  0  0  0  0  0  0  0  0
   29.3532   30.8298   33.4371 C   0  0  0  0  0  0  0  0  0  0  0  0
   29.8525   31.4499   32.7405 H   0  0  0  0  0  0  0  0  0  0  0  0
   28.4507   29.8667   33.0002 C   0  0  0  0  0  0  0  0  0  0  0  0
   28.2524   29.7557   31.9637 H   0  0  0  0  0  0  0  0  0  0  0  0
   28.0547   29.1747   35.1500 C   0  0  0  0  0  0  0  0  0  0  0  0
   27.3579   28.2663   35.9270 N   0  0  0  0  0  0  0  0  0  0  0  0
   27.8165   27.5596   36.9913 C   0  0  0  0  0  0  0  0  0  0  0  0
   26.4345   27.9846   35.5868 H   0  0  0  0  0  0  0  0  0  0  0  0
   28.9121   30.1315   35.6850 C   0  0  0  0  0  0  0  0  0  0  0  0
   29.0256   30.2347   36.7292 H   0  0  0  0  0  0  0  0  0  0  0  0
   27.0065   26.8261   37.5128 O   0  0  0  0  0  0  0  0  0  0  0  0
   30.3206   27.1916   36.5121 C   0  0  0  0  0  0  0  0  0  0  0  0
   31.2560   27.7363   36.5412 H   0  0  0  0  0  0  0  0  0  0  0  0
   29.9866   26.8182   35.5522 H   0  0  0  0  0  0  0  0  0  0  0  0
   29.2601   27.6567   37.4723 C   0  0  0  0  0  0  0  0  0  0  0  0
   29.4786   28.4941   38.1199 H   0  0  0  0  0  0  0  0  0  0  0  0
   29.9734   26.3567   37.7221 C   0  0  0  0  0  0  0  0  0  0  0  0
   29.4091   25.4497   37.5440 H   0  0  0  0  0  0  0  0  0  0  0  0
   30.6922   26.3510   38.5305 H   0  0  0  0  0  0  0  0  0  0  0  0
   37.8843   37.6146   35.6333 O   0  0  0  0  0  0  0  0  0  0  0  0
   38.3593   36.8802   36.8839 C   0  0  0  0  0  0  0  0  0  0  0  0
   39.1592   37.4527   37.3671 H   0  0  0  0  0  0  0  0  0  0  0  0
   38.7870   35.9122   36.5974 H   0  0  0  0  0  0  0  0  0  0  0  0
   37.2180   36.6573   37.8727 C   0  0  0  0  0  0  0  0  0  0  0  0
   36.8869   37.6246   38.2712 H   0  0  0  0  0  0  0  0  0  0  0  0
   37.5772   36.0669   38.7242 H   0  0  0  0  0  0  0  0  0  0  0  0
   36.0365   35.9480   37.2184 N   0  0  0  0  0  0  0  0  0  0  0  0
   35.5615   36.6824   35.9678 C   0  0  0  0  0  0  0  0  0  0  0  0
   35.1335   37.6513   36.2546 H   0  0  0  0  0  0  0  0  0  0  0  0
   34.7616   36.1098   35.4846 H   0  0  0  0  0  0  0  0  0  0  0  0
   36.7028   36.9053   34.9790 C   0  0  0  0  0  0  0  0  0  0  0  0
   36.3436   37.4957   34.1275 H   0  0  0  0  0  0  0  0  0  0  0  0
   37.0339   35.9380   34.5805 H   0  0  0  0  0  0  0  0  0  0  0  0
  1 15  1  0  0  0  0
  2 13  1  0  0  0  0
  3  4  1  0  0  0  0
  3 10  1  0  0  0  0
  3 16  2  0  0  0  0
  4  5  1  0  0  0  0
  4  6  1  0  0  0  0
  4 46  1  0  0  0  0
  7  8  1  0  0  0  0
  7 18  1  0  0  0  0
  7 19  1  0  0  0  0
  9 18  2  0  0  0  0
 10 11  1  0  0  0  0
 10 13  2  0  0  0  0
 12 22  2  0  0  0  0
 12 24  1  0  0  0  0
 13 14  1  0  0  0  0
 14 15  2  0  0  0  0
 14 18  1  0  0  0  0
 15 16  1  0  0  0  0
 16 17  1  0  0  0  0
 19 20  2  0  0  0  0
 19 28  1  0  0  0  0
 20 21  1  0  0  0  0
 20 22  1  0  0  0  0
 22 23  1  0  0  0  0
 24 25  1  0  0  0  0
 24 28  2  0  0  0  0
 25 26  1  0  0  0  0
 25 27  1  0  0  0  0
 26 30  2  0  0  0  0
 26 34  1  0  0  0  0
 28 29  1  0  0  0  0
 31 32  1  0  0  0  0
 31 33  1  0  0  0  0
 31 34  1  0  0  0  0
 31 36  1  0  0  0  0
 34 35  1  0  0  0  0
 34 36  1  0  0  0  0
 36 37  1  0  0  0  0
 36 38  1  0  0  0  0
 39 40  1  0  0  0  0
 39 50  1  0  0  0  0
 40 41  1  0  0  0  0
 40 42  1  0  0  0  0
 40 43  1  0  0  0  0
 43 44  1  0  0  0  0
 43 45  1  0  0  0  0
 43 46  1  0  0  0  0
 46 47  1  0  0  0  0
 47 48  1  0  0  0  0
 47 49  1  0  0  0  0
 47 50  1  0  0  0  0
 50 51  1  0  0  0  0
 50 52  1  0  0  0  0
M  END
$$$$
tyk2_liang_jmc_17
  MOE2024           3D
tyk2_liang_jmc_17
 43 45  0  0  0  0  0  0  0  0999 V2000
   30.5840   33.2210   38.9240 Cl  0  0  0  0  0  0  0  0  0  0  0  0
   33.7164   32.3612   34.5245 Cl  0  0  0  0  0  0  0  0  0  0  0  0
   34.0850   34.8600   37.6560 C   0  0  0  0  0  0  0  0  0  0  0  0
   35.0096   35.8516   38.1044 C   0  0  0  0  0  0  0  0  0  0  0  0
   36.0854   35.9559   37.1712 O   0  0  0  0  0  0  0  0  0  0  0  0
   36.7207   34.6789   37.1002 C   0  0  0  0  0  0  0  0  0  0  0  0
   37.5496   34.7243   36.3938 H   0  0  0  0  0  0  0  0  0  0  0  0
   35.9997   33.9325   36.7669 H   0  0  0  0  0  0  0  0  0  0  0  0
   37.0977   34.4053   38.0857 H   0  0  0  0  0  0  0  0  0  0  0  0
   35.4018   35.5676   39.0809 H   0  0  0  0  0  0  0  0  0  0  0  0
   34.5018   36.8130   38.1824 H   0  0  0  0  0  0  0  0  0  0  0  0
   30.5089   31.9379   35.2387 N   0  0  0  0  0  0  0  0  0  0  0  0
   30.6682   32.7481   34.6270 H   0  0  0  0  0  0  0  0  0  0  0  0
   31.2980   30.7938   36.9813 O   0  0  0  0  0  0  0  0  0  0  0  0
   34.3220   34.1720   36.4650 C   0  0  0  0  0  0  0  0  0  0  0  0
   35.1034   34.3541   35.9461 H   0  0  0  0  0  0  0  0  0  0  0  0
   27.8116   29.0535   33.8459 N   0  0  0  0  0  0  0  0  0  0  0  0
   33.4110   33.2050   36.0310 C   0  0  0  0  0  0  0  0  0  0  0  0
   32.2560   32.9420   36.7670 C   0  0  0  0  0  0  0  0  0  0  0  0
   32.0430   33.6060   37.9670 C   0  0  0  0  0  0  0  0  0  0  0  0
   32.9430   34.5780   38.4090 C   0  0  0  0  0  0  0  0  0  0  0  0
   32.7571   35.0900   39.3189 H   0  0  0  0  0  0  0  0  0  0  0  0
   31.3180   31.8470   36.3570 C   0  0  0  0  0  0  0  0  0  0  0  0
   29.5932   30.9583   34.8032 C   0  0  0  0  0  0  0  0  0  0  0  0
   29.3532   30.8298   33.4371 C   0  0  0  0  0  0  0  0  0  0  0  0
   29.8525   31.4499   32.7405 H   0  0  0  0  0  0  0  0  0  0  0  0
   28.4507   29.8667   33.0002 C   0  0  0  0  0  0  0  0  0  0  0  0
   28.2524   29.7557   31.9637 H   0  0  0  0  0  0  0  0  0  0  0  0
   28.0547   29.1747   35.1500 C   0  0  0  0  0  0  0  0  0  0  0  0
   27.3579   28.2663   35.9270 N   0  0  0  0  0  0  0  0  0  0  0  0
   27.8165   27.5596   36.9913 C   0  0  0  0  0  0  0  0  0  0  0  0
   26.4345   27.9846   35.5868 H   0  0  0  0  0  0  0  0  0  0  0  0
   28.9121   30.1315   35.6850 C   0  0  0  0  0  0  0  0  0  0  0  0
   29.0256   30.2347   36.7292 H   0  0  0  0  0  0  0  0  0  0  0  0
   27.0065   26.8261   37.5128 O   0  0  0  0  0  0  0  0  0  0  0  0
   30.3206   27.1916   36.5121 C   0  0  0  0  0  0  0  0  0  0  0  0
   31.2560   27.7363   36.5412 H   0  0  0  0  0  0  0  0  0  0  0  0
   29.9866   26.8182   35.5522 H   0  0  0  0  0  0  0  0  0  0  0  0
   29.2601   27.6567   37.4723 C   0  0  0  0  0  0  0  0  0  0  0  0
   29.4786   28.4941   38.1199 H   0  0  0  0  0  0  0  0  0  0  0  0
   29.9734   26.3567   37.7221 C   0  0  0  0  0  0  0  0  0  0  0  0
   29.4091   25.4497   37.5440 H   0  0  0  0  0  0  0  0  0  0  0  0
   30.6922   26.3510   38.5305 H   0  0  0  0  0  0  0  0  0  0  0  0
  1 20  1  0  0  0  0
  2 18  1  0  0  0  0
  3  4  1  0  0  0  0
  3 15  1  0  0  0  0
  3 21  2  0  0  0  0
  4  5  1  0  0  0  0
  4 10  1  0  0  0  0
  4 11  1  0  0  0  0
  5  6  1  0  0  0  0
  6  7  1  0  0  0  0
  6  8  1  0  0  0  0
  6  9  1  0  0  0  0
 12 13  1  0  0  0  0
 12 23  1  0  0  0  0
 12 24  1  0  0  0  0
 14 23  2  0  0  0  0
 15 16  1  0  0  0  0
 15 18  2  0  0  0  0
 17 27  2  0  0  0  0
 17 29  1  0  0  0  0
 18 19  1  0  0  0  0
 19 20  2  0  0  0  0
 19 23  1  0  0  0  0
 20 21  1  0  0  0  0
 21 22  1  0  0  0  0
 24 25  2  0  0  0  0
 24 33  1  0  0  0  0
 25 26  1  0  0  0  0
 25 27  1  0  0  0  0
 27 28  1  0  0  0  0
 29 30  1  0  0  0  0
 29 33  2  0  0  0  0
 30 31  1  0  0  0  0
 30 32  1  0  0  0  0
 31 35  2  0  0  0  0
 31 39  1  0  0  0  0
 33 34  1  0  0  0  0
 36 37  1  0  0  0  0
 36 38  1  0  0  0  0
 36 39  1  0  0  0  0
 36 41  1  0  0  0  0
 39 40  1  0  0  0  0
 39 41  1  0  0  0  0
 41 42  1  0  0  0  0
 41 43  1  0  0  0  0
M  END
$$$$
tyk2_liang_jmc_18
  MOE2024           3D
tyk2_liang_jmc_18
 48 50  0  0  0  0  0  0  0  0999 V2000
   30.5840   33.2210   38.9240 Cl  0  0  0  0  0  0  0  0  0  0  0  0
   33.7164   32.3612   34.5245 Cl  0  0  0  0  0  0  0  0  0  0  0  0
   34.0850   34.8600   37.6560 C   0  0  0  0  0  0  0  0  0  0  0  0
   35.0096   35.8516   38.1044 C   0  0  0  0  0  0  0  0  0  0  0  0
   36.0854   35.9559   37.1712 O   0  0  0  0  0  0  0  0  0  0  0  0
   36.7207   34.6789   37.1002 N   0  0  0  0  0  0  0  0  0  0  0  0
   35.7761   33.7010   36.6636 C   0  0  0  0  0  0  0  0  0  0  0  0
   35.3992   33.9746   35.6781 H   0  0  0  0  0  0  0  0  0  0  0  0
   34.9472   33.6557   37.3700 H   0  0  0  0  0  0  0  0  0  0  0  0
   36.2610   32.7263   36.6094 H   0  0  0  0  0  0  0  0  0  0  0  0
   37.2146   34.3205   38.3913 C   0  0  0  0  0  0  0  0  0  0  0  0
   37.9356   35.0670   38.7246 H   0  0  0  0  0  0  0  0  0  0  0  0
   37.6994   33.3458   38.3371 H   0  0  0  0  0  0  0  0  0  0  0  0
   36.3857   34.2752   39.0977 H   0  0  0  0  0  0  0  0  0  0  0  0
   35.4018   35.5676   39.0809 H   0  0  0  0  0  0  0  0  0  0  0  0
   34.5018   36.8130   38.1824 H   0  0  0  0  0  0  0  0  0  0  0  0
   30.5089   31.9379   35.2387 N   0  0  0  0  0  0  0  0  0  0  0  0
   30.6682   32.7481   34.6270 H   0  0  0  0  0  0  0  0  0  0  0  0
   31.2980   30.7938   36.9813 O   0  0  0  0  0  0  0  0  0  0  0  0
   34.3220   34.1720   36.4650 C   0  0  0  0  0  0  0  0  0  0  0  0
   35.1034   34.3541   35.9461 H   0  0  0  0  0  0  0  0  0  0  0  0
   27.8116   29.0535   33.8459 N   0  0  0  0  0  0  0  0  0  0  0  0
   33.4110   33.2050   36.0310 C   0  0  0  0  0  0  0  0  0  0  0  0
   32.2560   32.9420   36.7670 C   0  0  0  0  0  0  0  0  0  0  0  0
   32.0430   33.6060   37.9670 C   0  0  0  0  0  0  0  0  0  0  0  0
   32.9430   34.5780   38.4090 C   0  0  0  0  0  0  0  0  0  0  0  0
   32.7571   35.0900   39.3189 H   0  0  0  0  0  0  0  0  0  0  0  0
   31.3180   31.8470   36.3570 C   0  0  0  0  0  0  0  0  0  0  0  0
   29.5932   30.9583   34.8032 C   0  0  0  0  0  0  0  0  0  0  0  0
   29.3532   30.8298   33.4371 C   0  0  0  0  0  0  0  0  0  0  0  0
   29.8525   31.4499   32.7405 H   0  0  0  0  0  0  0  0  0  0  0  0
   28.4507   29.8667   33.0002 C   0  0  0  0  0  0  0  0  0  0  0  0
   28.2524   29.7557   31.9637 H   0  0  0  0  0  0  0  0  0  0  0  0
   28.0547   29.1747   35.1500 C   0  0  0  0  0  0  0  0  0  0  0  0
   27.3579   28.2663   35.9270 N   0  0  0  0  0  0  0  0  0  0  0  0
   27.8165   27.5596   36.9913 C   0  0  0  0  0  0  0  0  0  0  0  0
   26.4345   27.9846   35.5868 H   0  0  0  0  0  0  0  0  0  0  0  0
   28.9121   30.1315   35.6850 C   0  0  0  0  0  0  0  0  0  0  0  0
   29.0256   30.2347   36.7292 H   0  0  0  0  0  0  0  0  0  0  0  0
   27.0065   26.8261   37.5128 O   0  0  0  0  0  0  0  0  0  0  0  0
   30.3206   27.1916   36.5121 C   0  0  0  0  0  0  0  0  0  0  0  0
   31.2560   27.7363   36.5412 H   0  0  0  0  0  0  0  0  0  0  0  0
   29.9866   26.8182   35.5522 H   0  0  0  0  0  0  0  0  0  0  0  0
   29.2601   27.6567   37.4723 C   0  0  0  0  0  0  0  0  0  0  0  0
   29.4786   28.4941   38.1199 H   0  0  0  0  0  0  0  0  0  0  0  0
   29.9734   26.3567   37.7221 C   0  0  0  0  0  0  0  0  0  0  0  0
   29.4091   25.4497   37.5440 H   0  0  0  0  0  0  0  0  0  0  0  0
   30.6922   26.3510   38.5305 H   0  0  0  0  0  0  0  0  0  0  0  0
  1 25  1  0  0  0  0
  2 23  1  0  0  0  0
  3  4  1  0  0  0  0
  3 20  1  0  0  0  0
  3 26  2  0  0  0  0
  4  5  1  0  0  0  0
  4 15  1  0  0  0  0
  4 16  1  0  0  0  0
  5  6  1  0  0  0  0
  6  7  1  0  0  0  0
  6 11  1  0  0  0  0
  7  8  1  0  0  0  0
  7  9  1  0  0  0  0
  7 10  1  0  0  0  0
 11 12  1  0  0  0  0
 11 13  1  0  0  0  0
 11 14  1  0  0  0  0
 17 18  1  0  0  0  0
 17 28  1  0  0  0  0
 17 29  1  0  0  0  0
 19 28  2  0  0  0  0
 20 21  1  0  0  0  0
 20 23  2  0  0  0  0
 22 32  2  0  0  0  0
 22 34  1  0  0  0  0
 23 24  1  0  0  0  0
 24 25  2  0  0  0  0
 24 28  1  0  0  0  0
 25 26  1  0  0  0  0
 26 27  1  0  0  0  0
 29 30  2  0  0  0  0
 29 38  1  0  0  0  0
 30 31  1  0  0  0  0
 30 32  1  0  0  0  0
 32 33  1  0  0  0  0
 34 35  1  0  0  0  0
 34 38  2  0  0  0  0
 35 36  1  0  0  0  0
 35 37  1  0  0  0  0
 36 40  2  0  0  0  0
 36 44  1  0  0  0  0
 38 39  1  0  0  0  0
 41 42  1  0  0  0  0
 41 43  1  0  0  0  0
 41 44  1  0  0  0  0
 41 46  1  0  0  0  0
 44 45  1  0  0  0  0
 44 46  1  0  0  0  0
 46 47  1  0  0  0  0
 46 48  1  0  0  0  0
M  END
$$$$
tyk2_liang_jmc_19_4gii
  MOE2024           3D
tyk2_liang_jmc_19_4gii
 37 39  0  0  0  0  0  0  0  0999 V2000
   29.1334   27.8942   36.1519 C   0  0  0  0  0  0  0  0  0  0  0  0
   33.0664   34.4082   38.2286 C   0  0  0  0  0  0  0  0  0  0  0  0
   32.9475   34.7924   39.2312 H   0  0  0  0  0  0  0  0  0  0  0  0
   30.0007   28.9261   36.5170 C   0  0  0  0  0  0  0  0  0  0  0  0
   30.6453   28.8097   37.3748 H   0  0  0  0  0  0  0  0  0  0  0  0
   30.0361   30.1090   35.7749 C   0  0  0  0  0  0  0  0  0  0  0  0
   33.3970   33.4178   35.6283 C   0  0  0  0  0  0  0  0  0  0  0  0
   31.1502   32.3385   35.7125 C   0  0  0  0  0  0  0  0  0  0  0  0
   32.2138   33.1527   36.3424 C   0  0  0  0  0  0  0  0  0  0  0  0
   34.3945   34.1819   36.2057 C   0  0  0  0  0  0  0  0  0  0  0  0
   35.2978   34.3947   35.6533 H   0  0  0  0  0  0  0  0  0  0  0  0
   34.2362   34.6811   37.5052 C   0  0  0  0  0  0  0  0  0  0  0  0
   28.3771   28.0283   35.0596 N   0  0  0  0  0  0  0  0  0  0  0  0
   29.2192   30.1934   34.6294 C   0  0  0  0  0  0  0  0  0  0  0  0
   29.2354   31.0793   34.0104 H   0  0  0  0  0  0  0  0  0  0  0  0
   28.3939   29.1246   34.3064 C   0  0  0  0  0  0  0  0  0  0  0  0
   27.7592   29.1843   33.4348 H   0  0  0  0  0  0  0  0  0  0  0  0
   30.9490   31.0888   36.1966 N   0  0  0  0  0  0  0  0  0  0  0  0
   31.5406   30.8246   36.9715 H   0  0  0  0  0  0  0  0  0  0  0  0
   30.5105   32.8170   34.7889 O   0  0  0  0  0  0  0  0  0  0  0  0
   32.0641   33.6454   37.6533 C   0  0  0  0  0  0  0  0  0  0  0  0
   30.6386   33.3003   38.5737 Cl  0  0  0  0  0  0  0  0  0  0  0  0
   35.2677   35.4701   38.1008 C   0  0  0  0  0  0  0  0  0  0  0  0
   36.0794   36.1005   38.5796 N   0  0  0  0  0  0  0  0  0  0  0  0
   33.6171   32.7872   34.0251 Cl  0  0  0  0  0  0  0  0  0  0  0  0
   29.0511   26.7020   36.8908 N   0  0  0  0  0  0  0  0  0  0  0  0
   28.8727   25.8570   36.3693 H   0  0  0  0  0  0  0  0  0  0  0  0
   29.1881   26.5731   38.2409 C   0  0  0  0  0  0  0  0  0  0  0  0
   29.4356   27.5269   38.9668 O   0  0  0  0  0  0  0  0  0  0  0  0
   29.0447   25.1832   38.8259 C   0  0  0  0  0  0  0  0  0  0  0  0
   28.9723   24.7524   37.8274 H   0  0  0  0  0  0  0  0  0  0  0  0
   29.8048   24.8127   40.1028 C   0  0  0  0  0  0  0  0  0  0  0  0
   30.2248   23.8141   40.2162 H   0  0  0  0  0  0  0  0  0  0  0  0
   30.4651   25.5414   40.5753 H   0  0  0  0  0  0  0  0  0  0  0  0
   28.2872   25.0149   40.1441 C   0  0  0  0  0  0  0  0  0  0  0  0
   27.8675   25.8871   40.6467 H   0  0  0  0  0  0  0  0  0  0  0  0
   27.6272   24.1598   40.2877 H   0  0  0  0  0  0  0  0  0  0  0  0
  1  4  2  0  0  0  0
  1 13  1  0  0  0  0
  1 26  1  0  0  0  0
  2  3  1  0  0  0  0
  2 12  2  0  0  0  0
  2 21  1  0  0  0  0
  4  5  1  0  0  0  0
  4  6  1  0  0  0  0
  6 14  2  0  0  0  0
  6 18  1  0  0  0  0
  7  9  1  0  0  0  0
  7 10  2  0  0  0  0
  7 25  1  0  0  0  0
  8  9  1  0  0  0  0
  8 18  1  0  0  0  0
  8 20  2  0  0  0  0
  9 21  2  0  0  0  0
 10 11  1  0  0  0  0
 10 12  1  0  0  0  0
 12 23  1  0  0  0  0
 13 16  2  0  0  0  0
 14 15  1  0  0  0  0
 14 16  1  0  0  0  0
 16 17  1  0  0  0  0
 18 19  1  0  0  0  0
 21 22  1  0  0  0  0
 23 24  3  0  0  0  0
 26 27  1  0  0  0  0
 26 28  1  0  0  0  0
 28 29  2  0  0  0  0
 28 30  1  0  0  0  0
 30 31  1  0  0  0  0
 30 32  1  0  0  0  0
 30 35  1  0  0  0  0
 32 33  1  0  0  0  0
 32 34  1  0  0  0  0
 32 35  1  0  0  0  0
 35 36  1  0  0  0  0
 35 37  1  0  0  0  0
M  END
$$$$
tyk2_liang_jmc_20
  MOE2024           3D
tyk2_liang_jmc_20
 38 40  0  0  0  0  0  0  0  0999 V2000
   30.5840   33.2210   38.9240 Cl  0  0  0  0  0  0  0  0  0  0  0  0
   33.7164   32.3612   34.5245 Cl  0  0  0  0  0  0  0  0  0  0  0  0
   34.0850   34.8600   37.6560 C   0  0  0  0  0  0  0  0  0  0  0  0
   30.5089   31.9379   35.2387 N   0  0  0  0  0  0  0  0  0  0  0  0
   30.6682   32.7481   34.6270 H   0  0  0  0  0  0  0  0  0  0  0  0
   31.2980   30.7938   36.9813 O   0  0  0  0  0  0  0  0  0  0  0  0
   34.3220   34.1720   36.4650 C   0  0  0  0  0  0  0  0  0  0  0  0
   35.1034   34.3541   35.9461 H   0  0  0  0  0  0  0  0  0  0  0  0
   27.8116   29.0535   33.8459 N   0  0  0  0  0  0  0  0  0  0  0  0
   33.4110   33.2050   36.0310 C   0  0  0  0  0  0  0  0  0  0  0  0
   32.2560   32.9420   36.7670 C   0  0  0  0  0  0  0  0  0  0  0  0
   32.0430   33.6060   37.9670 C   0  0  0  0  0  0  0  0  0  0  0  0
   32.9430   34.5780   38.4090 C   0  0  0  0  0  0  0  0  0  0  0  0
   32.7571   35.0900   39.3189 H   0  0  0  0  0  0  0  0  0  0  0  0
   31.3180   31.8470   36.3570 C   0  0  0  0  0  0  0  0  0  0  0  0
   29.5932   30.9583   34.8032 C   0  0  0  0  0  0  0  0  0  0  0  0
   29.3532   30.8298   33.4371 C   0  0  0  0  0  0  0  0  0  0  0  0
   29.8525   31.4499   32.7405 H   0  0  0  0  0  0  0  0  0  0  0  0
   28.4507   29.8667   33.0002 C   0  0  0  0  0  0  0  0  0  0  0  0
   28.2524   29.7557   31.9637 H   0  0  0  0  0  0  0  0  0  0  0  0
   28.0547   29.1747   35.1500 C   0  0  0  0  0  0  0  0  0  0  0  0
   27.3579   28.2663   35.9270 N   0  0  0  0  0  0  0  0  0  0  0  0
   27.8165   27.5596   36.9913 C   0  0  0  0  0  0  0  0  0  0  0  0
   26.4345   27.9846   35.5868 H   0  0  0  0  0  0  0  0  0  0  0  0
   28.9121   30.1315   35.6850 C   0  0  0  0  0  0  0  0  0  0  0  0
   29.0256   30.2347   36.7292 H   0  0  0  0  0  0  0  0  0  0  0  0
   27.0065   26.8261   37.5128 O   0  0  0  0  0  0  0  0  0  0  0  0
   30.3206   27.1916   36.5121 C   0  0  0  0  0  0  0  0  0  0  0  0
   31.2560   27.7363   36.5412 H   0  0  0  0  0  0  0  0  0  0  0  0
   29.9866   26.8182   35.5522 H   0  0  0  0  0  0  0  0  0  0  0  0
   29.2601   27.6567   37.4723 C   0  0  0  0  0  0  0  0  0  0  0  0
   29.4786   28.4941   38.1199 H   0  0  0  0  0  0  0  0  0  0  0  0
   29.9734   26.3567   37.7221 C   0  0  0  0  0  0  0  0  0  0  0  0
   29.4091   25.4497   37.5440 H   0  0  0  0  0  0  0  0  0  0  0  0
   30.6922   26.3510   38.5305 H   0  0  0  0  0  0  0  0  0  0  0  0
   34.9655   35.8044   38.0830 C   0  0  0  0  0  0  0  0  0  0  0  0
   35.8901   36.7960   38.5314 C   0  0  0  0  0  0  0  0  0  0  0  0
   36.5796   37.5356   38.8658 H   0  0  0  0  0  0  0  0  0  0  0  0
  1 12  1  0  0  0  0
  2 10  1  0  0  0  0
  3  7  1  0  0  0  0
  3 13  2  0  0  0  0
  3 36  1  0  0  0  0
  4  5  1  0  0  0  0
  4 15  1  0  0  0  0
  4 16  1  0  0  0  0
  6 15  2  0  0  0  0
  7  8  1  0  0  0  0
  7 10  2  0  0  0  0
  9 19  2  0  0  0  0
  9 21  1  0  0  0  0
 10 11  1  0  0  0  0
 11 12  2  0  0  0  0
 11 15  1  0  0  0  0
 12 13  1  0  0  0  0
 13 14  1  0  0  0  0
 16 17  2  0  0  0  0
 16 25  1  0  0  0  0
 17 18  1  0  0  0  0
 17 19  1  0  0  0  0
 19 20  1  0  0  0  0
 21 22  1  0  0  0  0
 21 25  2  0  0  0  0
 22 23  1  0  0  0  0
 22 24  1  0  0  0  0
 23 27  2  0  0  0  0
 23 31  1  0  0  0  0
 25 26  1  0  0  0  0
 28 29  1  0  0  0  0
 28 30  1  0  0  0  0
 28 31  1  0  0  0  0
 28 33  1  0  0  0  0
 31 32  1  0  0  0  0
 31 33  1  0  0  0  0
 33 34  1  0  0  0  0
 33 35  1  0  0  0  0
 36 37  3  0  0  0  0
 37 38  1  0  0  0  0
M  END
$$$$
tyk2_liang_jmc_21
  MOE2024           3D
tyk2_liang_jmc_21
 43 46  0  0  0  0  0  0  0  0999 V2000
   30.5840   33.2210   38.9240 Cl  0  0  0  0  0  0  0  0  0  0  0  0
   33.7164   32.3612   34.5245 Cl  0  0  0  0  0  0  0  0  0  0  0  0
   34.0850   34.8600   37.6560 C   0  0  0  0  0  0  0  0  0  0  0  0
   30.5089   31.9379   35.2387 N   0  0  0  0  0  0  0  0  0  0  0  0
   30.6682   32.7481   34.6270 H   0  0  0  0  0  0  0  0  0  0  0  0
   31.2980   30.7938   36.9813 O   0  0  0  0  0  0  0  0  0  0  0  0
   34.3220   34.1720   36.4650 C   0  0  0  0  0  0  0  0  0  0  0  0
   35.1034   34.3541   35.9461 H   0  0  0  0  0  0  0  0  0  0  0  0
   27.8116   29.0535   33.8459 N   0  0  0  0  0  0  0  0  0  0  0  0
   33.4110   33.2050   36.0310 C   0  0  0  0  0  0  0  0  0  0  0  0
   32.2560   32.9420   36.7670 C   0  0  0  0  0  0  0  0  0  0  0  0
   32.0430   33.6060   37.9670 C   0  0  0  0  0  0  0  0  0  0  0  0
   32.9430   34.5780   38.4090 C   0  0  0  0  0  0  0  0  0  0  0  0
   32.7571   35.0900   39.3189 H   0  0  0  0  0  0  0  0  0  0  0  0
   31.3180   31.8470   36.3570 C   0  0  0  0  0  0  0  0  0  0  0  0
   29.5932   30.9583   34.8032 C   0  0  0  0  0  0  0  0  0  0  0  0
   29.3532   30.8298   33.4371 C   0  0  0  0  0  0  0  0  0  0  0  0
   29.8525   31.4499   32.7405 H   0  0  0  0  0  0  0  0  0  0  0  0
   28.4507   29.8667   33.0002 C   0  0  0  0  0  0  0  0  0  0  0  0
   28.2524   29.7557   31.9637 H   0  0  0  0  0  0  0  0  0  0  0  0
   28.0547   29.1747   35.1500 C   0  0  0  0  0  0  0  0  0  0  0  0
   27.3579   28.2663   35.9270 N   0  0  0  0  0  0  0  0  0  0  0  0
   27.8165   27.5596   36.9913 C   0  0  0  0  0  0  0  0  0  0  0  0
   26.4345   27.9846   35.5868 H   0  0  0  0  0  0  0  0  0  0  0  0
   28.9121   30.1315   35.6850 C   0  0  0  0  0  0  0  0  0  0  0  0
   29.0256   30.2347   36.7292 H   0  0  0  0  0  0  0  0  0  0  0  0
   27.0065   26.8261   37.5128 O   0  0  0  0  0  0  0  0  0  0  0  0
   30.3206   27.1916   36.5121 C   0  0  0  0  0  0  0  0  0  0  0  0
   31.2560   27.7363   36.5412 H   0  0  0  0  0  0  0  0  0  0  0  0
   29.9866   26.8182   35.5522 H   0  0  0  0  0  0  0  0  0  0  0  0
   29.2601   27.6567   37.4723 C   0  0  0  0  0  0  0  0  0  0  0  0
   29.4786   28.4941   38.1199 H   0  0  0  0  0  0  0  0  0  0  0  0
   29.9734   26.3567   37.7221 C   0  0  0  0  0  0  0  0  0  0  0  0
   29.4091   25.4497   37.5440 H   0  0  0  0  0  0  0  0  0  0  0  0
   30.6922   26.3510   38.5305 H   0  0  0  0  0  0  0  0  0  0  0  0
   36.7202   37.2861   38.1469 N   0  0  0  0  0  0  0  0  0  0  0  0
   37.5335   37.8237   37.8832 H   0  0  0  0  0  0  0  0  0  0  0  0
   36.0564   36.3266   37.3382 C   0  0  0  0  0  0  0  0  0  0  0  0
   36.3320   36.0431   36.3332 H   0  0  0  0  0  0  0  0  0  0  0  0
   34.9655   35.8044   38.0830 C   0  0  0  0  0  0  0  0  0  0  0  0
   34.9559   36.4419   39.3523 C   0  0  0  0  0  0  0  0  0  0  0  0
   34.2480   36.2619   40.1478 H   0  0  0  0  0  0  0  0  0  0  0  0
   36.0402   37.3573   39.3914 N   0  0  0  0  0  0  0  0  0  0  0  0
  1 12  1  0  0  0  0
  2 10  1  0  0  0  0
  3  7  1  0  0  0  0
  3 13  2  0  0  0  0
  3 40  1  0  0  0  0
  4  5  1  0  0  0  0
  4 15  1  0  0  0  0
  4 16  1  0  0  0  0
  6 15  2  0  0  0  0
  7  8  1  0  0  0  0
  7 10  2  0  0  0  0
  9 19  2  0  0  0  0
  9 21  1  0  0  0  0
 10 11  1  0  0  0  0
 11 12  2  0  0  0  0
 11 15  1  0  0  0  0
 12 13  1  0  0  0  0
 13 14  1  0  0  0  0
 16 17  2  0  0  0  0
 16 25  1  0  0  0  0
 17 18  1  0  0  0  0
 17 19  1  0  0  0  0
 19 20  1  0  0  0  0
 21 22  1  0  0  0  0
 21 25  2  0  0  0  0
 22 23  1  0  0  0  0
 22 24  1  0  0  0  0
 23 27  2  0  0  0  0
 23 31  1  0  0  0  0
 25 26  1  0  0  0  0
 28 29  1  0  0  0  0
 28 30  1  0  0  0  0
 28 31  1  0  0  0  0
 28 33  1  0  0  0  0
 31 32  1  0  0  0  0
 31 33  1  0  0  0  0
 33 34  1  0  0  0  0
 33 35  1  0  0  0  0
 36 37  1  0  0  0  0
 36 38  1  0  0  0  0
 36 43  1  0  0  0  0
 38 39  1  0  0  0  0
 38 40  2  0  0  0  0
 40 41  1  0  0  0  0
 41 42  1  0  0  0  0
 41 43  2  0  0  0  0
M  END
$$$$
tyk2_liang_jmc_22
  MOE2024           3D
tyk2_liang_jmc_22
 42 45  0  0  0  0  0  0  0  0999 V2000
   30.5840   33.2210   38.9240 Cl  0  0  0  0  0  0  0  0  0  0  0  0
   33.7164   32.3612   34.5245 Cl  0  0  0  0  0  0  0  0  0  0  0  0
   34.0850   34.8600   37.6560 C   0  0  0  0  0  0  0  0  0  0  0  0
   30.5089   31.9379   35.2387 N   0  0  0  0  0  0  0  0  0  0  0  0
   30.6682   32.7481   34.6270 H   0  0  0  0  0  0  0  0  0  0  0  0
   31.2980   30.7938   36.9813 O   0  0  0  0  0  0  0  0  0  0  0  0
   34.3220   34.1720   36.4650 C   0  0  0  0  0  0  0  0  0  0  0  0
   35.1034   34.3541   35.9461 H   0  0  0  0  0  0  0  0  0  0  0  0
   27.8116   29.0535   33.8459 N   0  0  0  0  0  0  0  0  0  0  0  0
   33.4110   33.2050   36.0310 C   0  0  0  0  0  0  0  0  0  0  0  0
   32.2560   32.9420   36.7670 C   0  0  0  0  0  0  0  0  0  0  0  0
   32.0430   33.6060   37.9670 C   0  0  0  0  0  0  0  0  0  0  0  0
   32.9430   34.5780   38.4090 C   0  0  0  0  0  0  0  0  0  0  0  0
   32.7571   35.0900   39.3189 H   0  0  0  0  0  0  0  0  0  0  0  0
   31.3180   31.8470   36.3570 C   0  0  0  0  0  0  0  0  0  0  0  0
   29.5932   30.9583   34.8032 C   0  0  0  0  0  0  0  0  0  0  0  0
   29.3532   30.8298   33.4371 C   0  0  0  0  0  0  0  0  0  0  0  0
   29.8525   31.4499   32.7405 H   0  0  0  0  0  0  0  0  0  0  0  0
   28.4507   29.8667   33.0002 C   0  0  0  0  0  0  0  0  0  0  0  0
   28.2524   29.7557   31.9637 H   0  0  0  0  0  0  0  0  0  0  0  0
   28.0547   29.1747   35.1500 C   0  0  0  0  0  0  0  0  0  0  0  0
   27.3579   28.2663   35.9270 N   0  0  0  0  0  0  0  0  0  0  0  0
   27.8165   27.5596   36.9913 C   0  0  0  0  0  0  0  0  0  0  0  0
   26.4345   27.9846   35.5868 H   0  0  0  0  0  0  0  0  0  0  0  0
   28.9121   30.1315   35.6850 C   0  0  0  0  0  0  0  0  0  0  0  0
   29.0256   30.2347   36.7292 H   0  0  0  0  0  0  0  0  0  0  0  0
   27.0065   26.8261   37.5128 O   0  0  0  0  0  0  0  0  0  0  0  0
   30.3206   27.1916   36.5121 C   0  0  0  0  0  0  0  0  0  0  0  0
   31.2560   27.7363   36.5412 H   0  0  0  0  0  0  0  0  0  0  0  0
   29.9866   26.8182   35.5522 H   0  0  0  0  0  0  0  0  0  0  0  0
   29.2601   27.6567   37.4723 C   0  0  0  0  0  0  0  0  0  0  0  0
   29.4786   28.4941   38.1199 H   0  0  0  0  0  0  0  0  0  0  0  0
   29.9734   26.3567   37.7221 C   0  0  0  0  0  0  0  0  0  0  0  0
   29.4091   25.4497   37.5440 H   0  0  0  0  0  0  0  0  0  0  0  0
   30.6922   26.3510   38.5305 H   0  0  0  0  0  0  0  0  0  0  0  0
   36.7202   37.2861   38.1469 C   0  0  0  0  0  0  0  0  0  0  0  0
   37.5899   37.8610   37.8650 H   0  0  0  0  0  0  0  0  0  0  0  0
   36.0564   36.3266   37.3382 N   0  0  0  0  0  0  0  0  0  0  0  0
   36.3145   36.0617   36.3983 H   0  0  0  0  0  0  0  0  0  0  0  0
   34.9655   35.8044   38.0830 C   0  0  0  0  0  0  0  0  0  0  0  0
   34.9559   36.4419   39.3523 N   0  0  0  0  0  0  0  0  0  0  0  0
   36.0402   37.3573   39.3914 N   0  0  0  0  0  0  0  0  0  0  0  0
  1 12  1  0  0  0  0
  2 10  1  0  0  0  0
  3  7  1  0  0  0  0
  3 13  2  0  0  0  0
  3 40  1  0  0  0  0
  4  5  1  0  0  0  0
  4 15  1  0  0  0  0
  4 16  1  0  0  0  0
  6 15  2  0  0  0  0
  7  8  1  0  0  0  0
  7 10  2  0  0  0  0
  9 19  2  0  0  0  0
  9 21  1  0  0  0  0
 10 11  1  0  0  0  0
 11 12  2  0  0  0  0
 11 15  1  0  0  0  0
 12 13  1  0  0  0  0
 13 14  1  0  0  0  0
 16 17  2  0  0  0  0
 16 25  1  0  0  0  0
 17 18  1  0  0  0  0
 17 19  1  0  0  0  0
 19 20  1  0  0  0  0
 21 22  1  0  0  0  0
 21 25  2  0  0  0  0
 22 23  1  0  0  0  0
 22 24  1  0  0  0  0
 23 27  2  0  0  0  0
 23 31  1  0  0  0  0
 25 26  1  0  0  0  0
 28 29  1  0  0  0  0
 28 30  1  0  0  0  0
 28 31  1  0  0  0  0
 28 33  1  0  0  0  0
 31 32  1  0  0  0  0
 31 33  1  0  0  0  0
 33 34  1  0  0  0  0
 33 35  1  0  0  0  0
 36 37  1  0  0  0  0
 36 38  1  0  0  0  0
 36 42  2  0  0  0  0
 38 39  1  0  0  0  0
 38 40  1  0  0  0  0
 40 41  2  0  0  0  0
 41 42  1  0  0  0  0
M  END
$$$$
tyk2_liang_jmc_23_4gj2
  MOE2024           3D
tyk2_liang_jmc_23_4gj2
 36 38  0  0  1  0  0  0  0  0999 V2000
   34.1775   34.7712   37.2542 C   0  0  0  0  0  0  0  0  0  0  0  0
   33.0146   34.5991   37.9998 C   0  0  0  0  0  0  0  0  0  0  0  0
   31.9719   33.8244   37.5030 C   0  0  0  0  0  0  0  0  0  0  0  0
   32.0813   33.2179   36.2380 C   0  0  0  0  0  0  0  0  0  0  0  0
   33.2676   33.3881   35.4977 C   0  0  0  0  0  0  0  0  0  0  0  0
   34.2981   34.1659   36.0102 C   0  0  0  0  0  0  0  0  0  0  0  0
   33.4437   32.6290   33.9419 Cl  0  0  0  0  0  0  0  0  0  0  0  0
   30.9901   32.4037   35.6556 C   0  0  0  0  0  0  0  0  0  0  0  0
   30.2946   32.8946   34.7830 O   0  0  0  0  0  0  0  0  0  0  0  0
   30.8393   31.1367   36.0883 N   0  0  0  0  0  0  0  0  0  0  0  0
   29.9383   30.1584   35.6554 C   0  0  0  0  0  0  0  0  0  0  0  0
   29.1619   30.2124   34.4810 C   0  0  0  0  0  0  0  0  0  0  0  0
   28.3885   29.1095   34.1311 C   0  0  0  0  0  0  0  0  0  0  0  0
   28.3665   28.0195   34.8925 N   0  0  0  0  0  0  0  0  0  0  0  0
   29.0770   27.9261   36.0158 C   0  0  0  0  0  0  0  0  0  0  0  0
   29.9160   28.9778   36.3905 C   0  0  0  0  0  0  0  0  0  0  0  0
   29.0587   26.7281   36.7389 N   0  0  0  0  0  0  0  0  0  0  0  0
   29.3056   26.5717   38.0662 C   0  0  0  0  0  0  0  0  0  0  0  0
   29.5681   27.5026   38.8083 O   0  0  0  0  0  0  0  0  0  0  0  0
   29.2614   25.1582   38.5941 C   0  0  3  0  0  0  0  0  0  0  0  0
   29.9173   24.8374   39.9412 C   0  0  0  0  0  0  0  0  0  0  0  0
   28.3930   24.8521   39.8104 C   0  0  3  0  0  0  0  0  0  0  0  0
   27.7042   25.9228   40.3826 F   0  0  0  0  0  0  0  0  0  0  0  0
   30.5535   33.5964   38.4684 Cl  0  0  0  0  0  0  0  0  0  0  0  0
   29.3266   24.3991   37.8216 H   0  0  0  0  0  0  0  0  0  0  0  0
   27.8841   23.8908   39.8419 H   0  0  0  0  0  0  0  0  0  0  0  0
   34.9846   35.3743   37.6430 H   0  0  0  0  0  0  0  0  0  0  0  0
   32.9199   35.0680   38.9684 H   0  0  0  0  0  0  0  0  0  0  0  0
   35.1996   34.2979   35.4308 H   0  0  0  0  0  0  0  0  0  0  0  0
   31.4306   30.7816   36.8268 H   0  0  0  0  0  0  0  0  0  0  0  0
   29.1745   31.1013   33.8670 H   0  0  0  0  0  0  0  0  0  0  0  0
   27.7935   29.1310   33.2300 H   0  0  0  0  0  0  0  0  0  0  0  0
   30.5514   28.8708   37.2581 H   0  0  0  0  0  0  0  0  0  0  0  0
   28.8448   25.8582   36.2717 H   0  0  0  0  0  0  0  0  0  0  0  0
   30.5467   23.9528   39.8390 H   0  0  0  0  0  0  0  0  0  0  0  0
   30.5280   25.6833   40.2604 H   0  0  0  0  0  0  0  0  0  0  0  0
  1  2  1  0  0  0  0
  1  6  2  0  0  0  0
  1 27  1  0  0  0  0
  2  3  2  0  0  0  0
  2 28  1  0  0  0  0
  3  4  1  0  0  0  0
  3 24  1  0  0  0  0
  4  5  2  0  0  0  0
  4  8  1  0  0  0  0
  5  6  1  0  0  0  0
  5  7  1  0  0  0  0
  6 29  1  0  0  0  0
  8  9  2  0  0  0  0
  8 10  1  0  0  0  0
 10 11  1  0  0  0  0
 10 30  1  0  0  0  0
 11 12  1  0  0  0  0
 11 16  2  0  0  0  0
 12 13  2  0  0  0  0
 12 31  1  0  0  0  0
 13 14  1  0  0  0  0
 13 32  1  0  0  0  0
 14 15  2  0  0  0  0
 15 16  1  0  0  0  0
 15 17  1  0  0  0  0
 16 33  1  0  0  0  0
 17 18  1  0  0  0  0
 17 34  1  0  0  0  0
 18 19  2  0  0  0  0
 18 20  1  0  0  0  0
 20 21  1  0  0  0  0
 20 22  1  0  0  0  0
 20 25  1  0  0  0  0
 21 22  1  0  0  0  0
 21 35  1  0  0  0  0
 21 36  1  0  0  0  0
 22 23  1  0  0  0  0
 22 26  1  0  0  0  0
M  END
$$$$
tyk2_liang_jmc_24
  MOE2024           3D
tyk2_liang_jmc_24
 36 38  0  0  1  0  0  0  0  0999 V2000
   34.1775   34.7712   37.2542 C   0  0  0  0  0  0  0  0  0  0  0  0
   33.0146   34.5991   37.9998 C   0  0  0  0  0  0  0  0  0  0  0  0
   31.9719   33.8244   37.5030 C   0  0  0  0  0  0  0  0  0  0  0  0
   32.0813   33.2179   36.2380 C   0  0  0  0  0  0  0  0  0  0  0  0
   33.2676   33.3881   35.4977 C   0  0  0  0  0  0  0  0  0  0  0  0
   34.2981   34.1659   36.0102 C   0  0  0  0  0  0  0  0  0  0  0  0
   33.4437   32.6290   33.9419 Cl  0  0  0  0  0  0  0  0  0  0  0  0
   30.9901   32.4037   35.6556 C   0  0  0  0  0  0  0  0  0  0  0  0
   30.2946   32.8946   34.7830 O   0  0  0  0  0  0  0  0  0  0  0  0
   30.8393   31.1367   36.0883 N   0  0  0  0  0  0  0  0  0  0  0  0
   29.9383   30.1584   35.6554 C   0  0  0  0  0  0  0  0  0  0  0  0
   29.1619   30.2124   34.4810 C   0  0  0  0  0  0  0  0  0  0  0  0
   28.3885   29.1095   34.1311 C   0  0  0  0  0  0  0  0  0  0  0  0
   28.3665   28.0195   34.8925 N   0  0  0  0  0  0  0  0  0  0  0  0
   29.0770   27.9261   36.0158 C   0  0  0  0  0  0  0  0  0  0  0  0
   29.9160   28.9778   36.3905 C   0  0  0  0  0  0  0  0  0  0  0  0
   29.0587   26.7281   36.7389 N   0  0  0  0  0  0  0  0  0  0  0  0
   29.3056   26.5717   38.0662 C   0  0  0  0  0  0  0  0  0  0  0  0
   29.5681   27.5026   38.8083 O   0  0  0  0  0  0  0  0  0  0  0  0
   29.2614   25.1582   38.5941 C   0  0  3  0  0  0  0  0  0  0  0  0
   28.3886   24.9039   39.8274 C   0  0  0  0  0  0  0  0  0  0  0  0
   29.9133   24.8924   39.9475 C   0  0  3  0  0  0  0  0  0  0  0  0
   30.5059   25.9708   40.6048 F   0  0  0  0  0  0  0  0  0  0  0  0
   30.5535   33.5964   38.4684 Cl  0  0  0  0  0  0  0  0  0  0  0  0
   29.3266   24.3991   37.8216 H   0  0  0  0  0  0  0  0  0  0  0  0
   30.4045   23.9298   40.0793 H   0  0  0  0  0  0  0  0  0  0  0  0
   34.9846   35.3743   37.6430 H   0  0  0  0  0  0  0  0  0  0  0  0
   32.9199   35.0680   38.9684 H   0  0  0  0  0  0  0  0  0  0  0  0
   35.1996   34.2979   35.4308 H   0  0  0  0  0  0  0  0  0  0  0  0
   31.4306   30.7816   36.8268 H   0  0  0  0  0  0  0  0  0  0  0  0
   29.1745   31.1013   33.8670 H   0  0  0  0  0  0  0  0  0  0  0  0
   27.7935   29.1310   33.2300 H   0  0  0  0  0  0  0  0  0  0  0  0
   30.5514   28.8708   37.2581 H   0  0  0  0  0  0  0  0  0  0  0  0
   28.8448   25.8582   36.2717 H   0  0  0  0  0  0  0  0  0  0  0  0
   27.7524   25.7707   40.0088 H   0  0  0  0  0  0  0  0  0  0  0  0
   27.7653   24.0246   39.6581 H   0  0  0  0  0  0  0  0  0  0  0  0
  1  2  1  0  0  0  0
  1  6  2  0  0  0  0
  1 27  1  0  0  0  0
  2  3  2  0  0  0  0
  2 28  1  0  0  0  0
  3  4  1  0  0  0  0
  3 24  1  0  0  0  0
  4  5  2  0  0  0  0
  4  8  1  0  0  0  0
  5  6  1  0  0  0  0
  5  7  1  0  0  0  0
  6 29  1  0  0  0  0
  8  9  2  0  0  0  0
  8 10  1  0  0  0  0
 10 11  1  0  0  0  0
 10 30  1  0  0  0  0
 11 12  1  0  0  0  0
 11 16  2  0  0  0  0
 12 13  2  0  0  0  0
 12 31  1  0  0  0  0
 13 14  1  0  0  0  0
 13 32  1  0  0  0  0
 14 15  2  0  0  0  0
 15 16  1  0  0  0  0
 15 17  1  0  0  0  0
 16 33  1  0  0  0  0
 17 18  1  0  0  0  0
 17 34  1  0  0  0  0
 18 19  2  0  0  0  0
 18 20  1  0  0  0  0
 20 21  1  0  0  0  0
 20 22  1  0  0  0  0
 20 25  1  0  0  0  0
 21 22  1  0  0  0  0
 21 35  1  0  0  0  0
 21 36  1  0  0  0  0
 22 23  1  0  0  0  0
 22 26  1  0  0  0  0
M  END
$$$$
tyk2_liang_jmc_25
  MOE2024           3D
tyk2_liang_jmc_25
 36 38  0  0  1  0  0  0  0  0999 V2000
   34.1775   34.7712   37.2542 C   0  0  0  0  0  0  0  0  0  0  0  0
   33.0146   34.5991   37.9998 C   0  0  0  0  0  0  0  0  0  0  0  0
   31.9719   33.8244   37.5030 C   0  0  0  0  0  0  0  0  0  0  0  0
   32.0813   33.2179   36.2380 C   0  0  0  0  0  0  0  0  0  0  0  0
   33.2676   33.3881   35.4977 C   0  0  0  0  0  0  0  0  0  0  0  0
   34.2981   34.1659   36.0102 C   0  0  0  0  0  0  0  0  0  0  0  0
   33.4437   32.6290   33.9419 Cl  0  0  0  0  0  0  0  0  0  0  0  0
   30.9901   32.4037   35.6556 C   0  0  0  0  0  0  0  0  0  0  0  0
   30.2946   32.8946   34.7830 O   0  0  0  0  0  0  0  0  0  0  0  0
   30.8393   31.1367   36.0883 N   0  0  0  0  0  0  0  0  0  0  0  0
   29.9383   30.1584   35.6554 C   0  0  0  0  0  0  0  0  0  0  0  0
   29.1619   30.2124   34.4810 C   0  0  0  0  0  0  0  0  0  0  0  0
   28.3885   29.1095   34.1311 C   0  0  0  0  0  0  0  0  0  0  0  0
   28.3665   28.0195   34.8925 N   0  0  0  0  0  0  0  0  0  0  0  0
   29.0770   27.9261   36.0158 C   0  0  0  0  0  0  0  0  0  0  0  0
   29.9160   28.9778   36.3905 C   0  0  0  0  0  0  0  0  0  0  0  0
   29.0587   26.7281   36.7389 N   0  0  0  0  0  0  0  0  0  0  0  0
   29.3056   26.5717   38.0662 C   0  0  0  0  0  0  0  0  0  0  0  0
   29.5681   27.5026   38.8083 O   0  0  0  0  0  0  0  0  0  0  0  0
   29.2614   25.1582   38.5941 C   0  0  3  0  0  0  0  0  0  0  0  0
   29.9173   24.8374   39.9412 C   0  0  0  0  0  0  0  0  0  0  0  0
   28.3930   24.8521   39.8104 C   0  0  3  0  0  0  0  0  0  0  0  0
   27.7425   23.6190   39.8476 F   0  0  0  0  0  0  0  0  0  0  0  0
   30.5535   33.5964   38.4684 Cl  0  0  0  0  0  0  0  0  0  0  0  0
   29.3266   24.3991   37.8216 H   0  0  0  0  0  0  0  0  0  0  0  0
   27.8538   25.6862   40.2560 H   0  0  0  0  0  0  0  0  0  0  0  0
   34.9846   35.3743   37.6430 H   0  0  0  0  0  0  0  0  0  0  0  0
   32.9199   35.0680   38.9684 H   0  0  0  0  0  0  0  0  0  0  0  0
   35.1996   34.2979   35.4308 H   0  0  0  0  0  0  0  0  0  0  0  0
   31.4306   30.7816   36.8268 H   0  0  0  0  0  0  0  0  0  0  0  0
   29.1745   31.1013   33.8670 H   0  0  0  0  0  0  0  0  0  0  0  0
   27.7935   29.1310   33.2300 H   0  0  0  0  0  0  0  0  0  0  0  0
   30.5514   28.8708   37.2581 H   0  0  0  0  0  0  0  0  0  0  0  0
   28.8448   25.8582   36.2717 H   0  0  0  0  0  0  0  0  0  0  0  0
   30.5467   23.9528   39.8390 H   0  0  0  0  0  0  0  0  0  0  0  0
   30.5280   25.6833   40.2604 H   0  0  0  0  0  0  0  0  0  0  0  0
  1  2  1  0  0  0  0
  1  6  2  0  0  0  0
  1 27  1  0  0  0  0
  2  3  2  0  0  0  0
  2 28  1  0  0  0  0
  3  4  1  0  0  0  0
  3 24  1  0  0  0  0
  4  5  2  0  0  0  0
  4  8  1  0  0  0  0
  5  6  1  0  0  0  0
  5  7  1  0  0  0  0
  6 29  1  0  0  0  0
  8  9  2  0  0  0  0
  8 10  1  0  0  0  0
 10 11  1  0  0  0  0
 10 30  1  0  0  0  0
 11 12  1  0  0  0  0
 11 16  2  0  0  0  0
 12 13  2  0  0  0  0
 12 31  1  0  0  0  0
 13 14  1  0  0  0  0
 13 32  1  0  0  0  0
 14 15  2  0  0  0  0
 15 16  1  0  0  0  0
 15 17  1  0  0  0  0
 16 33  1  0  0  0  0
 17 18  1  0  0  0  0
 17 34  1  0  0  0  0
 18 19  2  0  0  0  0
 18 20  1  0  0  0  0
 20 21  1  0  0  0  0
 20 22  1  0  0  0  0
 20 25  1  0  0  0  0
 21 22  1  0  0  0  0
 21 35  1  0  0  0  0
 21 36  1  0  0  0  0
 22 23  1  0  0  0  0
 22 26  1  0  0  0  0
M  END
$$$$
tyk2_liang_jmc_26
  MOE2024           3D
tyk2_liang_jmc_26
 36 38  0  0  1  0  0  0  0  0999 V2000
   34.1775   34.7712   37.2542 C   0  0  0  0  0  0  0  0  0  0  0  0
   33.0146   34.5991   37.9998 C   0  0  0  0  0  0  0  0  0  0  0  0
   31.9719   33.8244   37.5030 C   0  0  0  0  0  0  0  0  0  0  0  0
   32.0813   33.2179   36.2380 C   0  0  0  0  0  0  0  0  0  0  0  0
   33.2676   33.3881   35.4977 C   0  0  0  0  0  0  0  0  0  0  0  0
   34.2981   34.1659   36.0102 C   0  0  0  0  0  0  0  0  0  0  0  0
   33.4437   32.6290   33.9419 Cl  0  0  0  0  0  0  0  0  0  0  0  0
   30.9901   32.4037   35.6556 C   0  0  0  0  0  0  0  0  0  0  0  0
   30.2946   32.8946   34.7830 O   0  0  0  0  0  0  0  0  0  0  0  0
   30.8393   31.1367   36.0883 N   0  0  0  0  0  0  0  0  0  0  0  0
   29.9383   30.1584   35.6554 C   0  0  0  0  0  0  0  0  0  0  0  0
   29.1619   30.2124   34.4810 C   0  0  0  0  0  0  0  0  0  0  0  0
   28.3885   29.1095   34.1311 C   0  0  0  0  0  0  0  0  0  0  0  0
   28.3665   28.0195   34.8925 N   0  0  0  0  0  0  0  0  0  0  0  0
   29.0770   27.9261   36.0158 C   0  0  0  0  0  0  0  0  0  0  0  0
   29.9160   28.9778   36.3905 C   0  0  0  0  0  0  0  0  0  0  0  0
   29.0587   26.7281   36.7389 N   0  0  0  0  0  0  0  0  0  0  0  0
   29.3056   26.5717   38.0662 C   0  0  0  0  0  0  0  0  0  0  0  0
   29.5681   27.5026   38.8083 O   0  0  0  0  0  0  0  0  0  0  0  0
   29.2614   25.1582   38.5941 C   0  0  3  0  0  0  0  0  0  0  0  0
   28.3886   24.9039   39.8274 C   0  0  0  0  0  0  0  0  0  0  0  0
   29.9133   24.8924   39.9475 C   0  0  3  0  0  0  0  0  0  0  0  0
   30.5402   23.6565   40.1160 F   0  0  0  0  0  0  0  0  0  0  0  0
   30.5535   33.5964   38.4684 Cl  0  0  0  0  0  0  0  0  0  0  0  0
   29.3266   24.3991   37.8216 H   0  0  0  0  0  0  0  0  0  0  0  0
   30.3771   25.7316   40.4628 H   0  0  0  0  0  0  0  0  0  0  0  0
   34.9846   35.3743   37.6430 H   0  0  0  0  0  0  0  0  0  0  0  0
   32.9199   35.0680   38.9684 H   0  0  0  0  0  0  0  0  0  0  0  0
   35.1996   34.2979   35.4308 H   0  0  0  0  0  0  0  0  0  0  0  0
   31.4306   30.7816   36.8268 H   0  0  0  0  0  0  0  0  0  0  0  0
   29.1745   31.1013   33.8670 H   0  0  0  0  0  0  0  0  0  0  0  0
   27.7935   29.1310   33.2300 H   0  0  0  0  0  0  0  0  0  0  0  0
   30.5514   28.8708   37.2581 H   0  0  0  0  0  0  0  0  0  0  0  0
   28.8448   25.8582   36.2717 H   0  0  0  0  0  0  0  0  0  0  0  0
   27.7524   25.7707   40.0088 H   0  0  0  0  0  0  0  0  0  0  0  0
   27.7653   24.0246   39.6581 H   0  0  0  0  0  0  0  0  0  0  0  0
  1  2  1  0  0  0  0
  1  6  2  0  0  0  0
  1 27  1  0  0  0  0
  2  3  2  0  0  0  0
  2 28  1  0  0  0  0
  3  4  1  0  0  0  0
  3 24  1  0  0  0  0
  4  5  2  0  0  0  0
  4  8  1  0  0  0  0
  5  6  1  0  0  0  0
  5  7  1  0  0  0  0
  6 29  1  0  0  0  0
  8  9  2  0  0  0  0
  8 10  1  0  0  0  0
 10 11  1  0  0  0  0
 10 30  1  0  0  0  0
 11 12  1  0  0  0  0
 11 16  2  0  0  0  0
 12 13  2  0  0  0  0
 12 31  1  0  0  0  0
 13 14  1  0  0  0  0
 13 32  1  0  0  0  0
 14 15  2  0  0  0  0
 15 16  1  0  0  0  0
 15 17  1  0  0  0  0
 16 33  1  0  0  0  0
 17 18  1  0  0  0  0
 17 34  1  0  0  0  0
 18 19  2  0  0  0  0
 18 20  1  0  0  0  0
 20 21  1  0  0  0  0
 20 22  1  0  0  0  0
 20 25  1  0  0  0  0
 21 22  1  0  0  0  0
 21 35  1  0  0  0  0
 21 36  1  0  0  0  0
 22 23  1  0  0  0  0
 22 26  1  0  0  0  0
M  END
$$$$
tyk2_liang_jmc_27
  MOE2024           3D
tyk2_liang_jmc_27
 36 38  0  0  1  0  0  0  0  0999 V2000
   34.1775   34.7712   37.2542 C   0  0  0  0  0  0  0  0  0  0  0  0
   33.0146   34.5991   37.9998 C   0  0  0  0  0  0  0  0  0  0  0  0
   31.9719   33.8244   37.5030 C   0  0  0  0  0  0  0  0  0  0  0  0
   32.0813   33.2179   36.2380 C   0  0  0  0  0  0  0  0  0  0  0  0
   33.2676   33.3881   35.4977 C   0  0  0  0  0  0  0  0  0  0  0  0
   34.2981   34.1659   36.0102 C   0  0  0  0  0  0  0  0  0  0  0  0
   33.4437   32.6290   33.9419 Cl  0  0  0  0  0  0  0  0  0  0  0  0
   30.9901   32.4037   35.6556 C   0  0  0  0  0  0  0  0  0  0  0  0
   30.2946   32.8946   34.7830 O   0  0  0  0  0  0  0  0  0  0  0  0
   30.8393   31.1367   36.0883 N   0  0  0  0  0  0  0  0  0  0  0  0
   29.9383   30.1584   35.6554 C   0  0  0  0  0  0  0  0  0  0  0  0
   29.1619   30.2124   34.4810 C   0  0  0  0  0  0  0  0  0  0  0  0
   28.3885   29.1095   34.1311 C   0  0  0  0  0  0  0  0  0  0  0  0
   28.3665   28.0195   34.8925 N   0  0  0  0  0  0  0  0  0  0  0  0
   29.0770   27.9261   36.0158 C   0  0  0  0  0  0  0  0  0  0  0  0
   29.9160   28.9778   36.3905 C   0  0  0  0  0  0  0  0  0  0  0  0
   29.0587   26.7281   36.7389 N   0  0  0  0  0  0  0  0  0  0  0  0
   29.3056   26.5717   38.0662 C   0  0  0  0  0  0  0  0  0  0  0  0
   29.5681   27.5026   38.8083 O   0  0  0  0  0  0  0  0  0  0  0  0
   29.2614   25.1582   38.5941 C   0  0  3  0  0  0  0  0  0  0  0  0
   29.9173   24.8374   39.9412 C   0  0  0  0  0  0  0  0  0  0  0  0
   28.3930   24.8521   39.8104 C   0  0  3  0  0  0  0  0  0  0  0  0
   27.5076   26.2297   40.5474 Cl  0  0  0  0  0  0  0  0  0  0  0  0
   30.5535   33.5964   38.4684 Cl  0  0  0  0  0  0  0  0  0  0  0  0
   29.3266   24.3991   37.8216 H   0  0  0  0  0  0  0  0  0  0  0  0
   27.8841   23.8908   39.8419 H   0  0  0  0  0  0  0  0  0  0  0  0
   34.9846   35.3743   37.6430 H   0  0  0  0  0  0  0  0  0  0  0  0
   32.9199   35.0680   38.9684 H   0  0  0  0  0  0  0  0  0  0  0  0
   35.1996   34.2979   35.4308 H   0  0  0  0  0  0  0  0  0  0  0  0
   31.4306   30.7816   36.8268 H   0  0  0  0  0  0  0  0  0  0  0  0
   29.1745   31.1013   33.8670 H   0  0  0  0  0  0  0  0  0  0  0  0
   27.7935   29.1310   33.2300 H   0  0  0  0  0  0  0  0  0  0  0  0
   30.5514   28.8708   37.2581 H   0  0  0  0  0  0  0  0  0  0  0  0
   28.8448   25.8582   36.2717 H   0  0  0  0  0  0  0  0  0  0  0  0
   30.5467   23.9528   39.8390 H   0  0  0  0  0  0  0  0  0  0  0  0
   30.5280   25.6833   40.2604 H   0  0  0  0  0  0  0  0  0  0  0  0
  1  2  1  0  0  0  0
  1  6  2  0  0  0  0
  1 27  1  0  0  0  0
  2  3  2  0  0  0  0
  2 28  1  0  0  0  0
  3  4  1  0  0  0  0
  3 24  1  0  0  0  0
  4  5  2  0  0  0  0
  4  8  1  0  0  0  0
  5  6  1  0  0  0  0
  5  7  1  0  0  0  0
  6 29  1  0  0  0  0
  8  9  2  0  0  0  0
  8 10  1  0  0  0  0
 10 11  1  0  0  0  0
 10 30  1  0  0  0  0
 11 12  1  0  0  0  0
 11 16  2  0  0  0  0
 12 13  2  0  0  0  0
 12 31  1  0  0  0  0
 13 14  1  0  0  0  0
 13 32  1  0  0  0  0
 14 15  2  0  0  0  0
 15 16  1  0  0  0  0
 15 17  1  0  0  0  0
 16 33  1  0  0  0  0
 17 18  1  0  0  0  0
 17 34  1  0  0  0  0
 18 19  2  0  0  0  0
 18 20  1  0  0  0  0
 20 21  1  0  0  0  0
 20 22  1  0  0  0  0
 20 25  1  0  0  0  0
 21 22  1  0  0  0  0
 21 35  1  0  0  0  0
 21 36  1  0  0  0  0
 22 23  1  0  0  0  0
 22 26  1  0  0  0  0
M  END
$$$$
tyk2_liang_jmc_28
  MOE2024           3D
tyk2_liang_jmc_28
 39 41  0  0  1  0  0  0  0  0999 V2000
   34.1775   34.7712   37.2542 C   0  0  0  0  0  0  0  0  0  0  0  0
   33.0146   34.5991   37.9998 C   0  0  0  0  0  0  0  0  0  0  0  0
   31.9719   33.8244   37.5030 C   0  0  0  0  0  0  0  0  0  0  0  0
   32.0813   33.2179   36.2380 C   0  0  0  0  0  0  0  0  0  0  0  0
   33.2676   33.3881   35.4977 C   0  0  0  0  0  0  0  0  0  0  0  0
   34.2981   34.1659   36.0102 C   0  0  0  0  0  0  0  0  0  0  0  0
   33.4437   32.6290   33.9419 Cl  0  0  0  0  0  0  0  0  0  0  0  0
   30.9901   32.4037   35.6556 C   0  0  0  0  0  0  0  0  0  0  0  0
   30.2946   32.8946   34.7830 O   0  0  0  0  0  0  0  0  0  0  0  0
   30.8393   31.1367   36.0883 N   0  0  0  0  0  0  0  0  0  0  0  0
   29.9383   30.1584   35.6554 C   0  0  0  0  0  0  0  0  0  0  0  0
   29.1619   30.2124   34.4810 C   0  0  0  0  0  0  0  0  0  0  0  0
   28.3885   29.1095   34.1311 C   0  0  0  0  0  0  0  0  0  0  0  0
   28.3665   28.0195   34.8925 N   0  0  0  0  0  0  0  0  0  0  0  0
   29.0770   27.9261   36.0158 C   0  0  0  0  0  0  0  0  0  0  0  0
   29.9160   28.9778   36.3905 C   0  0  0  0  0  0  0  0  0  0  0  0
   29.0587   26.7281   36.7389 N   0  0  0  0  0  0  0  0  0  0  0  0
   29.3056   26.5717   38.0662 C   0  0  0  0  0  0  0  0  0  0  0  0
   29.5681   27.5026   38.8083 O   0  0  0  0  0  0  0  0  0  0  0  0
   29.2614   25.1582   38.5941 C   0  0  3  0  0  0  0  0  0  0  0  0
   29.9173   24.8374   39.9412 C   0  0  0  0  0  0  0  0  0  0  0  0
   28.3930   24.8521   39.8104 C   0  0  3  0  0  0  0  0  0  0  0  0
   27.6531   26.0035   40.4256 C   0  0  0  0  0  0  0  0  0  0  0  0
   30.5535   33.5964   38.4684 Cl  0  0  0  0  0  0  0  0  0  0  0  0
   29.3266   24.3991   37.8216 H   0  0  0  0  0  0  0  0  0  0  0  0
   27.8841   23.8908   39.8419 H   0  0  0  0  0  0  0  0  0  0  0  0
   34.9846   35.3743   37.6430 H   0  0  0  0  0  0  0  0  0  0  0  0
   32.9199   35.0680   38.9684 H   0  0  0  0  0  0  0  0  0  0  0  0
   35.1996   34.2979   35.4308 H   0  0  0  0  0  0  0  0  0  0  0  0
   31.4306   30.7816   36.8268 H   0  0  0  0  0  0  0  0  0  0  0  0
   29.1745   31.1013   33.8670 H   0  0  0  0  0  0  0  0  0  0  0  0
   27.7935   29.1310   33.2300 H   0  0  0  0  0  0  0  0  0  0  0  0
   30.5514   28.8708   37.2581 H   0  0  0  0  0  0  0  0  0  0  0  0
   28.8448   25.8582   36.2717 H   0  0  0  0  0  0  0  0  0  0  0  0
   30.5467   23.9528   39.8390 H   0  0  0  0  0  0  0  0  0  0  0  0
   30.5280   25.6833   40.2604 H   0  0  0  0  0  0  0  0  0  0  0  0
   27.0757   25.6497   41.2794 H   0  0  0  0  0  0  0  0  0  0  0  0
   28.3658   26.7583   40.7572 H   0  0  0  0  0  0  0  0  0  0  0  0
   26.9792   26.4392   39.6875 H   0  0  0  0  0  0  0  0  0  0  0  0
  1  2  1  0  0  0  0
  1  6  2  0  0  0  0
  1 27  1  0  0  0  0
  2  3  2  0  0  0  0
  2 28  1  0  0  0  0
  3  4  1  0  0  0  0
  3 24  1  0  0  0  0
  4  5  2  0  0  0  0
  4  8  1  0  0  0  0
  5  6  1  0  0  0  0
  5  7  1  0  0  0  0
  6 29  1  0  0  0  0
  8  9  2  0  0  0  0
  8 10  1  0  0  0  0
 10 11  1  0  0  0  0
 10 30  1  0  0  0  0
 11 12  1  0  0  0  0
 11 16  2  0  0  0  0
 12 13  2  0  0  0  0
 12 31  1  0  0  0  0
 13 14  1  0  0  0  0
 13 32  1  0  0  0  0
 14 15  2  0  0  0  0
 15 16  1  0  0  0  0
 15 17  1  0  0  0  0
 16 33  1  0  0  0  0
 17 18  1  0  0  0  0
 17 34  1  0  0  0  0
 18 19  2  0  0  0  0
 18 20  1  0  0  0  0
 20 21  1  0  0  0  0
 20 22  1  0  0  0  0
 20 25  1  0  0  0  0
 21 22  1  0  0  0  0
 21 35  1  0  0  0  0
 21 36  1  0  0  0  0
 22 23  1  0  0  0  0
 22 26  1  0  0  0  0
 23 37  1  0  0  0  0
 23 38  1  0  0  0  0
 23 39  1  0  0  0  0
M  END
$$$$
tyk2_liang_jmc_29
  MOE2024           3D
tyk2_liang_jmc_29
 40 42  0  0  1  0  0  0  0  0999 V2000
   34.1775   34.7712   37.2542 C   0  0  0  0  0  0  0  0  0  0  0  0
   33.0146   34.5991   37.9998 C   0  0  0  0  0  0  0  0  0  0  0  0
   31.9719   33.8244   37.5030 C   0  0  0  0  0  0  0  0  0  0  0  0
   32.0813   33.2179   36.2380 C   0  0  0  0  0  0  0  0  0  0  0  0
   33.2676   33.3881   35.4977 C   0  0  0  0  0  0  0  0  0  0  0  0
   34.2981   34.1659   36.0102 C   0  0  0  0  0  0  0  0  0  0  0  0
   33.4437   32.6290   33.9419 Cl  0  0  0  0  0  0  0  0  0  0  0  0
   30.9901   32.4037   35.6556 C   0  0  0  0  0  0  0  0  0  0  0  0
   30.2946   32.8946   34.7830 O   0  0  0  0  0  0  0  0  0  0  0  0
   30.8393   31.1367   36.0883 N   0  0  0  0  0  0  0  0  0  0  0  0
   29.9383   30.1584   35.6554 C   0  0  0  0  0  0  0  0  0  0  0  0
   29.1619   30.2124   34.4810 C   0  0  0  0  0  0  0  0  0  0  0  0
   28.3885   29.1095   34.1311 C   0  0  0  0  0  0  0  0  0  0  0  0
   28.3665   28.0195   34.8925 N   0  0  0  0  0  0  0  0  0  0  0  0
   29.0770   27.9261   36.0158 C   0  0  0  0  0  0  0  0  0  0  0  0
   29.9160   28.9778   36.3905 C   0  0  0  0  0  0  0  0  0  0  0  0
   29.0587   26.7281   36.7389 N   0  0  0  0  0  0  0  0  0  0  0  0
   29.3056   26.5717   38.0662 C   0  0  0  0  0  0  0  0  0  0  0  0
   29.5681   27.5026   38.8083 O   0  0  0  0  0  0  0  0  0  0  0  0
   29.2614   25.1582   38.5941 C   0  0  3  0  0  0  0  0  0  0  0  0
   29.9173   24.8374   39.9412 C   0  0  0  0  0  0  0  0  0  0  0  0
   28.3930   24.8521   39.8104 C   0  0  3  0  0  0  0  0  0  0  0  0
   27.6531   26.0035   40.4256 C   0  0  0  0  0  0  0  0  0  0  0  0
   30.5535   33.5964   38.4684 Cl  0  0  0  0  0  0  0  0  0  0  0  0
   29.3266   24.3991   37.8216 H   0  0  0  0  0  0  0  0  0  0  0  0
   27.8841   23.8908   39.8419 H   0  0  0  0  0  0  0  0  0  0  0  0
   34.9846   35.3743   37.6430 H   0  0  0  0  0  0  0  0  0  0  0  0
   32.9199   35.0680   38.9684 H   0  0  0  0  0  0  0  0  0  0  0  0
   35.1996   34.2979   35.4308 H   0  0  0  0  0  0  0  0  0  0  0  0
   31.4306   30.7816   36.8268 H   0  0  0  0  0  0  0  0  0  0  0  0
   29.1745   31.1013   33.8670 H   0  0  0  0  0  0  0  0  0  0  0  0
   27.7935   29.1310   33.2300 H   0  0  0  0  0  0  0  0  0  0  0  0
   30.5514   28.8708   37.2581 H   0  0  0  0  0  0  0  0  0  0  0  0
   28.8448   25.8582   36.2717 H   0  0  0  0  0  0  0  0  0  0  0  0
   30.5467   23.9528   39.8390 H   0  0  0  0  0  0  0  0  0  0  0  0
   30.5280   25.6833   40.2604 H   0  0  0  0  0  0  0  0  0  0  0  0
   26.8970   25.5409   41.5447 O   0  0  0  0  0  0  0  0  0  0  0  0
   27.5144   25.1631   42.1757 H   0  0  0  0  0  0  0  0  0  0  0  0
   28.3658   26.7583   40.7572 H   0  0  0  0  0  0  0  0  0  0  0  0
   26.9792   26.4392   39.6875 H   0  0  0  0  0  0  0  0  0  0  0  0
  1  2  1  0  0  0  0
  1  6  2  0  0  0  0
  1 27  1  0  0  0  0
  2  3  2  0  0  0  0
  2 28  1  0  0  0  0
  3  4  1  0  0  0  0
  3 24  1  0  0  0  0
  4  5  2  0  0  0  0
  4  8  1  0  0  0  0
  5  6  1  0  0  0  0
  5  7  1  0  0  0  0
  6 29  1  0  0  0  0
  8  9  2  0  0  0  0
  8 10  1  0  0  0  0
 10 11  1  0  0  0  0
 10 30  1  0  0  0  0
 11 12  1  0  0  0  0
 11 16  2  0  0  0  0
 12 13  2  0  0  0  0
 12 31  1  0  0  0  0
 13 14  1  0  0  0  0
 13 32  1  0  0  0  0
 14 15  2  0  0  0  0
 15 16  1  0  0  0  0
 15 17  1  0  0  0  0
 16 33  1  0  0  0  0
 17 18  1  0  0  0  0
 17 34  1  0  0  0  0
 18 19  2  0  0  0  0
 18 20  1  0  0  0  0
 20 21  1  0  0  0  0
 20 22  1  0  0  0  0
 20 25  1  0  0  0  0
 21 22  1  0  0  0  0
 21 35  1  0  0  0  0
 21 36  1  0  0  0  0
 22 23  1  0  0  0  0
 22 26  1  0  0  0  0
 23 37  1  0  0  0  0
 23 39  1  0  0  0  0
 23 40  1  0  0  0  0
 37 38  1  0  0  0  0
M  END
$$$$
tyk2_liang_jmc_30
  MOE2024           3D
tyk2_liang_jmc_30
 37 39  0  0  1  0  0  0  0  0999 V2000
   34.1775   34.7712   37.2542 C   0  0  0  0  0  0  0  0  0  0  0  0
   33.0146   34.5991   37.9998 C   0  0  0  0  0  0  0  0  0  0  0  0
   31.9719   33.8244   37.5030 C   0  0  0  0  0  0  0  0  0  0  0  0
   32.0813   33.2179   36.2380 C   0  0  0  0  0  0  0  0  0  0  0  0
   33.2676   33.3881   35.4977 C   0  0  0  0  0  0  0  0  0  0  0  0
   34.2981   34.1659   36.0102 C   0  0  0  0  0  0  0  0  0  0  0  0
   33.4437   32.6290   33.9419 Cl  0  0  0  0  0  0  0  0  0  0  0  0
   30.9901   32.4037   35.6556 C   0  0  0  0  0  0  0  0  0  0  0  0
   30.2946   32.8946   34.7830 O   0  0  0  0  0  0  0  0  0  0  0  0
   30.8393   31.1367   36.0883 N   0  0  0  0  0  0  0  0  0  0  0  0
   29.9383   30.1584   35.6554 C   0  0  0  0  0  0  0  0  0  0  0  0
   29.1619   30.2124   34.4810 C   0  0  0  0  0  0  0  0  0  0  0  0
   28.3885   29.1095   34.1311 C   0  0  0  0  0  0  0  0  0  0  0  0
   28.3665   28.0195   34.8925 N   0  0  0  0  0  0  0  0  0  0  0  0
   29.0770   27.9261   36.0158 C   0  0  0  0  0  0  0  0  0  0  0  0
   29.9160   28.9778   36.3905 C   0  0  0  0  0  0  0  0  0  0  0  0
   29.0587   26.7281   36.7389 N   0  0  0  0  0  0  0  0  0  0  0  0
   29.3056   26.5717   38.0662 C   0  0  0  0  0  0  0  0  0  0  0  0
   29.5681   27.5026   38.8083 O   0  0  0  0  0  0  0  0  0  0  0  0
   29.2614   25.1582   38.5941 C   0  0  3  0  0  0  0  0  0  0  0  0
   29.9173   24.8374   39.9412 C   0  0  0  0  0  0  0  0  0  0  0  0
   28.3930   24.8521   39.8104 C   0  0  3  0  0  0  0  0  0  0  0  0
   27.6531   26.0035   40.4256 C   0  0  0  0  0  0  0  0  0  0  0  0
   30.5535   33.5964   38.4684 Cl  0  0  0  0  0  0  0  0  0  0  0  0
   29.3266   24.3991   37.8216 H   0  0  0  0  0  0  0  0  0  0  0  0
   27.8841   23.8908   39.8419 H   0  0  0  0  0  0  0  0  0  0  0  0
   34.9846   35.3743   37.6430 H   0  0  0  0  0  0  0  0  0  0  0  0
   32.9199   35.0680   38.9684 H   0  0  0  0  0  0  0  0  0  0  0  0
   35.1996   34.2979   35.4308 H   0  0  0  0  0  0  0  0  0  0  0  0
   31.4306   30.7816   36.8268 H   0  0  0  0  0  0  0  0  0  0  0  0
   29.1745   31.1013   33.8670 H   0  0  0  0  0  0  0  0  0  0  0  0
   27.7935   29.1310   33.2300 H   0  0  0  0  0  0  0  0  0  0  0  0
   30.5514   28.8708   37.2581 H   0  0  0  0  0  0  0  0  0  0  0  0
   28.8448   25.8582   36.2717 H   0  0  0  0  0  0  0  0  0  0  0  0
   30.5467   23.9528   39.8390 H   0  0  0  0  0  0  0  0  0  0  0  0
   30.5280   25.6833   40.2604 H   0  0  0  0  0  0  0  0  0  0  0  0
   26.9271   27.1321   41.0292 N   0  0  0  0  0  0  0  0  0  0  0  0
  1  2  1  0  0  0  0
  1  6  2  0  0  0  0
  1 27  1  0  0  0  0
  2  3  2  0  0  0  0
  2 28  1  0  0  0  0
  3  4  1  0  0  0  0
  3 24  1  0  0  0  0
  4  5  2  0  0  0  0
  4  8  1  0  0  0  0
  5  6  1  0  0  0  0
  5  7  1  0  0  0  0
  6 29  1  0  0  0  0
  8  9  2  0  0  0  0
  8 10  1  0  0  0  0
 10 11  1  0  0  0  0
 10 30  1  0  0  0  0
 11 12  1  0  0  0  0
 11 16  2  0  0  0  0
 12 13  2  0  0  0  0
 12 31  1  0  0  0  0
 13 14  1  0  0  0  0
 13 32  1  0  0  0  0
 14 15  2  0  0  0  0
 15 16  1  0  0  0  0
 15 17  1  0  0  0  0
 16 33  1  0  0  0  0
 17 18  1  0  0  0  0
 17 34  1  0  0  0  0
 18 19  2  0  0  0  0
 18 20  1  0  0  0  0
 20 21  1  0  0  0  0
 20 22  1  0  0  0  0
 20 25  1  0  0  0  0
 21 22  1  0  0  0  0
 21 35  1  0  0  0  0
 21 36  1  0  0  0  0
 22 23  1  0  0  0  0
 22 26  1  0  0  0  0
 23 37  3  0  0  0  0
M  END
$$$$
tyk2_liang_jmc_31
  MOE2024           3D
tyk2_liang_jmc_31
 42 44  0  0  1  0  0  0  0  0999 V2000
   34.1775   34.7712   37.2542 C   0  0  0  0  0  0  0  0  0  0  0  0
   33.0146   34.5991   37.9998 C   0  0  0  0  0  0  0  0  0  0  0  0
   31.9719   33.8244   37.5030 C   0  0  0  0  0  0  0  0  0  0  0  0
   32.0813   33.2179   36.2380 C   0  0  0  0  0  0  0  0  0  0  0  0
   33.2676   33.3881   35.4977 C   0  0  0  0  0  0  0  0  0  0  0  0
   34.2981   34.1659   36.0102 C   0  0  0  0  0  0  0  0  0  0  0  0
   33.4437   32.6290   33.9419 Cl  0  0  0  0  0  0  0  0  0  0  0  0
   30.9901   32.4037   35.6556 C   0  0  0  0  0  0  0  0  0  0  0  0
   30.2946   32.8946   34.7830 O   0  0  0  0  0  0  0  0  0  0  0  0
   30.8393   31.1367   36.0883 N   0  0  0  0  0  0  0  0  0  0  0  0
   29.9383   30.1584   35.6554 C   0  0  0  0  0  0  0  0  0  0  0  0
   29.1619   30.2124   34.4810 C   0  0  0  0  0  0  0  0  0  0  0  0
   28.3885   29.1095   34.1311 C   0  0  0  0  0  0  0  0  0  0  0  0
   28.3665   28.0195   34.8925 N   0  0  0  0  0  0  0  0  0  0  0  0
   29.0770   27.9261   36.0158 C   0  0  0  0  0  0  0  0  0  0  0  0
   29.9160   28.9778   36.3905 C   0  0  0  0  0  0  0  0  0  0  0  0
   29.0587   26.7281   36.7389 N   0  0  0  0  0  0  0  0  0  0  0  0
   29.3056   26.5717   38.0662 C   0  0  0  0  0  0  0  0  0  0  0  0
   29.5681   27.5026   38.8083 O   0  0  0  0  0  0  0  0  0  0  0  0
   29.2614   25.1582   38.5941 C   0  0  3  0  0  0  0  0  0  0  0  0
   29.9173   24.8374   39.9412 C   0  0  0  0  0  0  0  0  0  0  0  0
   28.3930   24.8521   39.8104 C   0  0  3  0  0  0  0  0  0  0  0  0
   27.6531   26.0035   40.4256 C   0  0  0  0  0  0  0  0  0  0  0  0
   30.5535   33.5964   38.4684 Cl  0  0  0  0  0  0  0  0  0  0  0  0
   29.3266   24.3991   37.8216 H   0  0  0  0  0  0  0  0  0  0  0  0
   27.8841   23.8908   39.8419 H   0  0  0  0  0  0  0  0  0  0  0  0
   34.9846   35.3743   37.6430 H   0  0  0  0  0  0  0  0  0  0  0  0
   32.9199   35.0680   38.9684 H   0  0  0  0  0  0  0  0  0  0  0  0
   35.1996   34.2979   35.4308 H   0  0  0  0  0  0  0  0  0  0  0  0
   31.4306   30.7816   36.8268 H   0  0  0  0  0  0  0  0  0  0  0  0
   29.1745   31.1013   33.8670 H   0  0  0  0  0  0  0  0  0  0  0  0
   27.7935   29.1310   33.2300 H   0  0  0  0  0  0  0  0  0  0  0  0
   30.5514   28.8708   37.2581 H   0  0  0  0  0  0  0  0  0  0  0  0
   28.8448   25.8582   36.2717 H   0  0  0  0  0  0  0  0  0  0  0  0
   30.5467   23.9528   39.8390 H   0  0  0  0  0  0  0  0  0  0  0  0
   30.5280   25.6833   40.2604 H   0  0  0  0  0  0  0  0  0  0  0  0
   26.8970   25.5409   41.5447 O   0  0  0  0  0  0  0  0  0  0  0  0
   27.8143   24.9794   42.4835 N   0  0  0  0  0  0  0  0  0  0  0  0
   27.3080   24.6414   43.2896 H   0  0  0  0  0  0  0  0  0  0  0  0
   28.4743   25.6865   42.7737 H   0  0  0  0  0  0  0  0  0  0  0  0
   28.3658   26.7583   40.7572 H   0  0  0  0  0  0  0  0  0  0  0  0
   26.9792   26.4392   39.6875 H   0  0  0  0  0  0  0  0  0  0  0  0
  1  2  1  0  0  0  0
  1  6  2  0  0  0  0
  1 27  1  0  0  0  0
  2  3  2  0  0  0  0
  2 28  1  0  0  0  0
  3  4  1  0  0  0  0
  3 24  1  0  0  0  0
  4  5  2  0  0  0  0
  4  8  1  0  0  0  0
  5  6  1  0  0  0  0
  5  7  1  0  0  0  0
  6 29  1  0  0  0  0
  8  9  2  0  0  0  0
  8 10  1  0  0  0  0
 10 11  1  0  0  0  0
 10 30  1  0  0  0  0
 11 12  1  0  0  0  0
 11 16  2  0  0  0  0
 12 13  2  0  0  0  0
 12 31  1  0  0  0  0
 13 14  1  0  0  0  0
 13 32  1  0  0  0  0
 14 15  2  0  0  0  0
 15 16  1  0  0  0  0
 15 17  1  0  0  0  0
 16 33  1  0  0  0  0
 17 18  1  0  0  0  0
 17 34  1  0  0  0  0
 18 19  2  0  0  0  0
 18 20  1  0  0  0  0
 20 21  1  0  0  0  0
 20 22  1  0  0  0  0
 20 25  1  0  0  0  0
 21 22  1  0  0  0  0
 21 35  1  0  0  0  0
 21 36  1  0  0  0  0
 22 23  1  0  0  0  0
 22 26  1  0  0  0  0
 23 37  1  0  0  0  0
 23 41  1  0  0  0  0
 23 42  1  0  0  0  0
 37 38  1  0  0  0  0
 38 39  1  0  0  0  0
 38 40  1  0  0  0  0
M  END
$$$$
tyk2_liang_jmc_32
  MOE2024           3D
tyk2_liang_jmc_32
 38 40  0  0  1  0  0  0  0  0999 V2000
   34.1775   34.7712   37.2542 C   0  0  0  0  0  0  0  0  0  0  0  0
   33.0146   34.5991   37.9998 C   0  0  0  0  0  0  0  0  0  0  0  0
   31.9719   33.8244   37.5030 C   0  0  0  0  0  0  0  0  0  0  0  0
   32.0813   33.2179   36.2380 C   0  0  0  0  0  0  0  0  0  0  0  0
   33.2676   33.3881   35.4977 C   0  0  0  0  0  0  0  0  0  0  0  0
   34.2981   34.1659   36.0102 C   0  0  0  0  0  0  0  0  0  0  0  0
   33.4437   32.6290   33.9419 Cl  0  0  0  0  0  0  0  0  0  0  0  0
   30.9901   32.4037   35.6556 C   0  0  0  0  0  0  0  0  0  0  0  0
   30.2946   32.8946   34.7830 O   0  0  0  0  0  0  0  0  0  0  0  0
   30.8393   31.1367   36.0883 N   0  0  0  0  0  0  0  0  0  0  0  0
   29.9383   30.1584   35.6554 C   0  0  0  0  0  0  0  0  0  0  0  0
   29.1619   30.2124   34.4810 C   0  0  0  0  0  0  0  0  0  0  0  0
   28.3885   29.1095   34.1311 C   0  0  0  0  0  0  0  0  0  0  0  0
   28.3665   28.0195   34.8925 N   0  0  0  0  0  0  0  0  0  0  0  0
   29.0770   27.9261   36.0158 C   0  0  0  0  0  0  0  0  0  0  0  0
   29.9160   28.9778   36.3905 C   0  0  0  0  0  0  0  0  0  0  0  0
   29.0587   26.7281   36.7389 N   0  0  0  0  0  0  0  0  0  0  0  0
   29.3056   26.5717   38.0662 C   0  0  0  0  0  0  0  0  0  0  0  0
   29.5681   27.5026   38.8083 O   0  0  0  0  0  0  0  0  0  0  0  0
   29.2614   25.1582   38.5941 C   0  0  3  0  0  0  0  0  0  0  0  0
   29.9173   24.8374   39.9412 C   0  0  0  0  0  0  0  0  0  0  0  0
   28.3930   24.8521   39.8104 C   0  0  3  0  0  0  0  0  0  0  0  0
   30.5535   33.5964   38.4684 Cl  0  0  0  0  0  0  0  0  0  0  0  0
   29.3266   24.3991   37.8216 H   0  0  0  0  0  0  0  0  0  0  0  0
   27.8841   23.8908   39.8419 H   0  0  0  0  0  0  0  0  0  0  0  0
   34.9846   35.3743   37.6430 H   0  0  0  0  0  0  0  0  0  0  0  0
   32.9199   35.0680   38.9684 H   0  0  0  0  0  0  0  0  0  0  0  0
   35.1996   34.2979   35.4308 H   0  0  0  0  0  0  0  0  0  0  0  0
   31.4306   30.7816   36.8268 H   0  0  0  0  0  0  0  0  0  0  0  0
   29.1745   31.1013   33.8670 H   0  0  0  0  0  0  0  0  0  0  0  0
   27.7935   29.1310   33.2300 H   0  0  0  0  0  0  0  0  0  0  0  0
   30.5514   28.8708   37.2581 H   0  0  0  0  0  0  0  0  0  0  0  0
   28.8448   25.8582   36.2717 H   0  0  0  0  0  0  0  0  0  0  0  0
   30.5467   23.9528   39.8390 H   0  0  0  0  0  0  0  0  0  0  0  0
   30.5280   25.6833   40.2604 H   0  0  0  0  0  0  0  0  0  0  0  0
   27.3751   25.4953   40.4437 C   0  0  0  0  0  0  0  0  0  0  0  0
   27.3694   25.8765   41.5992 O   0  0  0  0  0  0  0  0  0  0  0  0
   26.3272   25.6726   39.6219 O   0  5  0  0  0  0  0  0  0  0  0  0
  1  2  1  0  0  0  0
  1  6  2  0  0  0  0
  1 26  1  0  0  0  0
  2  3  2  0  0  0  0
  2 27  1  0  0  0  0
  3  4  1  0  0  0  0
  3 23  1  0  0  0  0
  4  5  2  0  0  0  0
  4  8  1  0  0  0  0
  5  6  1  0  0  0  0
  5  7  1  0  0  0  0
  6 28  1  0  0  0  0
  8  9  2  0  0  0  0
  8 10  1  0  0  0  0
 10 11  1  0  0  0  0
 10 29  1  0  0  0  0
 11 12  1  0  0  0  0
 11 16  2  0  0  0  0
 12 13  2  0  0  0  0
 12 30  1  0  0  0  0
 13 14  1  0  0  0  0
 13 31  1  0  0  0  0
 14 15  2  0  0  0  0
 15 16  1  0  0  0  0
 15 17  1  0  0  0  0
 16 32  1  0  0  0  0
 17 18  1  0  0  0  0
 17 33  1  0  0  0  0
 18 19  2  0  0  0  0
 18 20  1  0  0  0  0
 20 21  1  0  0  0  0
 20 22  1  0  0  0  0
 20 24  1  0  0  0  0
 21 22  1  0  0  0  0
 21 34  1  0  0  0  0
 21 35  1  0  0  0  0
 22 25  1  0  0  0  0
 22 36  1  0  0  0  0
 36 37  2  0  0  0  0
 36 38  1  0  0  0  0
M  CHG  1  38  -1
M  END
$$$$
tyk2_liang_jmc_33
  MOE2024           3D
tyk2_liang_jmc_33
 41 44  0  0  1  0  0  0  0  0999 V2000
   34.1775   34.7712   37.2542 C   0  0  0  0  0  0  0  0  0  0  0  0
   33.0146   34.5991   37.9998 C   0  0  0  0  0  0  0  0  0  0  0  0
   31.9719   33.8244   37.5030 C   0  0  0  0  0  0  0  0  0  0  0  0
   32.0813   33.2179   36.2380 C   0  0  0  0  0  0  0  0  0  0  0  0
   33.2676   33.3881   35.4977 C   0  0  0  0  0  0  0  0  0  0  0  0
   34.2981   34.1659   36.0102 C   0  0  0  0  0  0  0  0  0  0  0  0
   33.4437   32.6290   33.9419 Cl  0  0  0  0  0  0  0  0  0  0  0  0
   30.9901   32.4037   35.6556 C   0  0  0  0  0  0  0  0  0  0  0  0
   30.2946   32.8946   34.7830 O   0  0  0  0  0  0  0  0  0  0  0  0
   30.8393   31.1367   36.0883 N   0  0  0  0  0  0  0  0  0  0  0  0
   29.9383   30.1584   35.6554 C   0  0  0  0  0  0  0  0  0  0  0  0
   29.1619   30.2124   34.4810 C   0  0  0  0  0  0  0  0  0  0  0  0
   28.3885   29.1095   34.1311 C   0  0  0  0  0  0  0  0  0  0  0  0
   28.3665   28.0195   34.8925 N   0  0  0  0  0  0  0  0  0  0  0  0
   29.0770   27.9261   36.0158 C   0  0  0  0  0  0  0  0  0  0  0  0
   29.9160   28.9778   36.3905 C   0  0  0  0  0  0  0  0  0  0  0  0
   29.0587   26.7281   36.7389 N   0  0  0  0  0  0  0  0  0  0  0  0
   29.3056   26.5717   38.0662 C   0  0  0  0  0  0  0  0  0  0  0  0
   29.5681   27.5026   38.8083 O   0  0  0  0  0  0  0  0  0  0  0  0
   29.2614   25.1582   38.5941 C   0  0  3  0  0  0  0  0  0  0  0  0
   29.9173   24.8374   39.9412 C   0  0  0  0  0  0  0  0  0  0  0  0
   28.3930   24.8521   39.8104 C   0  0  3  0  0  0  0  0  0  0  0  0
   30.5535   33.5964   38.4684 Cl  0  0  0  0  0  0  0  0  0  0  0  0
   29.3266   24.3991   37.8216 H   0  0  0  0  0  0  0  0  0  0  0  0
   27.8841   23.8908   39.8419 H   0  0  0  0  0  0  0  0  0  0  0  0
   34.9846   35.3743   37.6430 H   0  0  0  0  0  0  0  0  0  0  0  0
   32.9199   35.0680   38.9684 H   0  0  0  0  0  0  0  0  0  0  0  0
   35.1996   34.2979   35.4308 H   0  0  0  0  0  0  0  0  0  0  0  0
   31.4306   30.7816   36.8268 H   0  0  0  0  0  0  0  0  0  0  0  0
   29.1745   31.1013   33.8670 H   0  0  0  0  0  0  0  0  0  0  0  0
   27.7935   29.1310   33.2300 H   0  0  0  0  0  0  0  0  0  0  0  0
   30.5514   28.8708   37.2581 H   0  0  0  0  0  0  0  0  0  0  0  0
   28.8448   25.8582   36.2717 H   0  0  0  0  0  0  0  0  0  0  0  0
   30.5467   23.9528   39.8390 H   0  0  0  0  0  0  0  0  0  0  0  0
   30.5280   25.6833   40.2604 H   0  0  0  0  0  0  0  0  0  0  0  0
   26.1229   26.5451   42.0588 N   0  0  0  0  0  0  0  0  0  0  0  0
   25.8319   26.9460   42.9380 H   0  0  0  0  0  0  0  0  0  0  0  0
   27.3705   25.9182   41.7993 N   0  0  0  0  0  0  0  0  0  0  0  0
   27.3751   25.4953   40.4437 C   0  0  0  0  0  0  0  0  0  0  0  0
   26.1304   25.8592   39.8655 N   0  0  0  0  0  0  0  0  0  0  0  0
   25.3562   26.5084   40.8636 N   0  0  0  0  0  0  0  0  0  0  0  0
  1  2  1  0  0  0  0
  1  6  2  0  0  0  0
  1 26  1  0  0  0  0
  2  3  2  0  0  0  0
  2 27  1  0  0  0  0
  3  4  1  0  0  0  0
  3 23  1  0  0  0  0
  4  5  2  0  0  0  0
  4  8  1  0  0  0  0
  5  6  1  0  0  0  0
  5  7  1  0  0  0  0
  6 28  1  0  0  0  0
  8  9  2  0  0  0  0
  8 10  1  0  0  0  0
 10 11  1  0  0  0  0
 10 29  1  0  0  0  0
 11 12  1  0  0  0  0
 11 16  2  0  0  0  0
 12 13  2  0  0  0  0
 12 30  1  0  0  0  0
 13 14  1  0  0  0  0
 13 31  1  0  0  0  0
 14 15  2  0  0  0  0
 15 16  1  0  0  0  0
 15 17  1  0  0  0  0
 16 32  1  0  0  0  0
 17 18  1  0  0  0  0
 17 33  1  0  0  0  0
 18 19  2  0  0  0  0
 18 20  1  0  0  0  0
 20 21  1  0  0  0  0
 20 22  1  0  0  0  0
 20 24  1  0  0  0  0
 21 22  1  0  0  0  0
 21 34  1  0  0  0  0
 21 35  1  0  0  0  0
 22 25  1  0  0  0  0
 22 39  1  0  0  0  0
 36 37  1  0  0  0  0
 36 38  1  0  0  0  0
 36 41  1  0  0  0  0
 38 39  2  0  0  0  0
 39 40  1  0  0  0  0
 40 41  2  0  0  0  0
M  END
$$$$
tyk2_liang_jmc_34
  MOE2024           3D
tyk2_liang_jmc_34
 42 45  0  0  1  0  0  0  0  0999 V2000
   34.1775   34.7712   37.2542 C   0  0  0  0  0  0  0  0  0  0  0  0
   33.0146   34.5991   37.9998 C   0  0  0  0  0  0  0  0  0  0  0  0
   31.9719   33.8244   37.5030 C   0  0  0  0  0  0  0  0  0  0  0  0
   32.0813   33.2179   36.2380 C   0  0  0  0  0  0  0  0  0  0  0  0
   33.2676   33.3881   35.4977 C   0  0  0  0  0  0  0  0  0  0  0  0
   34.2981   34.1659   36.0102 C   0  0  0  0  0  0  0  0  0  0  0  0
   33.4437   32.6290   33.9419 Cl  0  0  0  0  0  0  0  0  0  0  0  0
   30.9901   32.4037   35.6556 C   0  0  0  0  0  0  0  0  0  0  0  0
   30.2946   32.8946   34.7830 O   0  0  0  0  0  0  0  0  0  0  0  0
   30.8393   31.1367   36.0883 N   0  0  0  0  0  0  0  0  0  0  0  0
   29.9383   30.1584   35.6554 C   0  0  0  0  0  0  0  0  0  0  0  0
   29.1619   30.2124   34.4810 C   0  0  0  0  0  0  0  0  0  0  0  0
   28.3885   29.1095   34.1311 C   0  0  0  0  0  0  0  0  0  0  0  0
   28.3665   28.0195   34.8925 N   0  0  0  0  0  0  0  0  0  0  0  0
   29.0770   27.9261   36.0158 C   0  0  0  0  0  0  0  0  0  0  0  0
   29.9160   28.9778   36.3905 C   0  0  0  0  0  0  0  0  0  0  0  0
   29.0587   26.7281   36.7389 N   0  0  0  0  0  0  0  0  0  0  0  0
   29.3056   26.5717   38.0662 C   0  0  0  0  0  0  0  0  0  0  0  0
   29.5681   27.5026   38.8083 O   0  0  0  0  0  0  0  0  0  0  0  0
   29.2614   25.1582   38.5941 C   0  0  3  0  0  0  0  0  0  0  0  0
   29.9173   24.8374   39.9412 C   0  0  0  0  0  0  0  0  0  0  0  0
   28.3930   24.8521   39.8104 C   0  0  3  0  0  0  0  0  0  0  0  0
   30.5535   33.5964   38.4684 Cl  0  0  0  0  0  0  0  0  0  0  0  0
   29.3266   24.3991   37.8216 H   0  0  0  0  0  0  0  0  0  0  0  0
   27.8841   23.8908   39.8419 H   0  0  0  0  0  0  0  0  0  0  0  0
   34.9846   35.3743   37.6430 H   0  0  0  0  0  0  0  0  0  0  0  0
   32.9199   35.0680   38.9684 H   0  0  0  0  0  0  0  0  0  0  0  0
   35.1996   34.2979   35.4308 H   0  0  0  0  0  0  0  0  0  0  0  0
   31.4306   30.7816   36.8268 H   0  0  0  0  0  0  0  0  0  0  0  0
   29.1745   31.1013   33.8670 H   0  0  0  0  0  0  0  0  0  0  0  0
   27.7935   29.1310   33.2300 H   0  0  0  0  0  0  0  0  0  0  0  0
   30.5514   28.8708   37.2581 H   0  0  0  0  0  0  0  0  0  0  0  0
   28.8448   25.8582   36.2717 H   0  0  0  0  0  0  0  0  0  0  0  0
   30.5467   23.9528   39.8390 H   0  0  0  0  0  0  0  0  0  0  0  0
   30.5280   25.6833   40.2604 H   0  0  0  0  0  0  0  0  0  0  0  0
   26.1229   26.5451   42.0588 C   0  0  0  0  0  0  0  0  0  0  0  0
   25.8116   26.9736   42.9993 H   0  0  0  0  0  0  0  0  0  0  0  0
   27.3705   25.9182   41.7993 N   0  0  0  0  0  0  0  0  0  0  0  0
   28.1227   25.7968   42.4623 H   0  0  0  0  0  0  0  0  0  0  0  0
   27.3751   25.4953   40.4437 C   0  0  0  0  0  0  0  0  0  0  0  0
   26.1304   25.8592   39.8655 N   0  0  0  0  0  0  0  0  0  0  0  0
   25.3562   26.5084   40.8636 N   0  0  0  0  0  0  0  0  0  0  0  0
  1  2  1  0  0  0  0
  1  6  2  0  0  0  0
  1 26  1  0  0  0  0
  2  3  2  0  0  0  0
  2 27  1  0  0  0  0
  3  4  1  0  0  0  0
  3 23  1  0  0  0  0
  4  5  2  0  0  0  0
  4  8  1  0  0  0  0
  5  6  1  0  0  0  0
  5  7  1  0  0  0  0
  6 28  1  0  0  0  0
  8  9  2  0  0  0  0
  8 10  1  0  0  0  0
 10 11  1  0  0  0  0
 10 29  1  0  0  0  0
 11 12  1  0  0  0  0
 11 16  2  0  0  0  0
 12 13  2  0  0  0  0
 12 30  1  0  0  0  0
 13 14  1  0  0  0  0
 13 31  1  0  0  0  0
 14 15  2  0  0  0  0
 15 16  1  0  0  0  0
 15 17  1  0  0  0  0
 16 32  1  0  0  0  0
 17 18  1  0  0  0  0
 17 33  1  0  0  0  0
 18 19  2  0  0  0  0
 18 20  1  0  0  0  0
 20 21  1  0  0  0  0
 20 22  1  0  0  0  0
 20 24  1  0  0  0  0
 21 22  1  0  0  0  0
 21 34  1  0  0  0  0
 21 35  1  0  0  0  0
 22 25  1  0  0  0  0
 22 40  1  0  0  0  0
 36 37  1  0  0  0  0
 36 38  1  0  0  0  0
 36 42  2  0  0  0  0
 38 39  1  0  0  0  0
 38 40  1  0  0  0  0
 40 41  2  0  0  0  0
 41 42  1  0  0  0  0
M  END
$$$$
tyk2_liang_jmc_35_4gj3
  MOE2024           3D
tyk2_liang_jmc_35_4gj3
 37 39  0  0  1  0  0  0  0  0999 V2000
   29.1411   30.2375   34.7475 C   0  0  0  0  0  0  0  0  0  0  0  0
   29.0884   31.1270   34.1358 H   0  0  0  0  0  0  0  0  0  0  0  0
   28.3728   29.1229   34.4374 C   0  0  0  0  0  0  0  0  0  0  0  0
   27.7229   29.1493   33.5758 H   0  0  0  0  0  0  0  0  0  0  0  0
   28.4253   28.0253   35.1847 N   0  0  0  0  0  0  0  0  0  0  0  0
   29.2012   27.9379   36.2671 C   0  0  0  0  0  0  0  0  0  0  0  0
   30.0329   29.0053   36.6097 C   0  0  0  0  0  0  0  0  0  0  0  0
   30.7093   28.9151   37.4463 H   0  0  0  0  0  0  0  0  0  0  0  0
   29.9911   30.1934   35.8710 C   0  0  0  0  0  0  0  0  0  0  0  0
   30.8720   31.2117   36.2704 N   0  0  0  0  0  0  0  0  0  0  0  0
   31.3974   31.0128   37.1097 H   0  0  0  0  0  0  0  0  0  0  0  0
   31.1319   32.4194   35.7118 C   0  0  0  0  0  0  0  0  0  0  0  0
   30.5559   32.8461   34.7268 O   0  0  0  0  0  0  0  0  0  0  0  0
   32.1776   33.2419   36.3590 C   0  0  0  0  0  0  0  0  0  0  0  0
   33.4052   33.4636   35.6959 C   0  0  0  0  0  0  0  0  0  0  0  0
   34.3918   34.2161   36.3128 C   0  0  0  0  0  0  0  0  0  0  0  0
   35.3191   34.4152   35.7959 H   0  0  0  0  0  0  0  0  0  0  0  0
   34.1922   34.7216   37.6045 C   0  0  0  0  0  0  0  0  0  0  0  0
   32.9847   34.4837   38.2752 C   0  0  0  0  0  0  0  0  0  0  0  0
   32.8317   34.8812   39.2678 H   0  0  0  0  0  0  0  0  0  0  0  0
   31.9883   33.7399   37.6665 C   0  0  0  0  0  0  0  0  0  0  0  0
   30.5148   33.4464   38.5386 Cl  0  0  0  0  0  0  0  0  0  0  0  0
   35.2196   35.4901   38.2373 C   0  0  0  0  0  0  0  0  0  0  0  0
   36.0321   36.1022   38.7414 N   0  0  0  0  0  0  0  0  0  0  0  0
   33.7090   32.8332   34.1017 Cl  0  0  0  0  0  0  0  0  0  0  0  0
   29.2342   26.7263   36.9703 N   0  0  0  0  0  0  0  0  0  0  0  0
   29.1476   25.8879   36.4151 H   0  0  0  0  0  0  0  0  0  0  0  0
   29.3682   26.5459   38.3089 C   0  0  0  0  0  0  0  0  0  0  0  0
   29.4740   27.4714   39.0950 O   0  0  0  0  0  0  0  0  0  0  0  0
   29.3852   25.1190   38.8015 C   0  0  3  0  0  0  0  0  0  0  0  0
   29.9566   24.8105   40.1876 C   0  0  0  0  0  0  0  0  0  0  0  0
   30.3786   25.6123   40.7942 H   0  0  0  0  0  0  0  0  0  0  0  0
   30.5213   23.8941   40.3531 H   0  0  0  0  0  0  0  0  0  0  0  0
   28.4456   24.7479   39.9436 C   0  0  3  0  0  0  0  0  0  0  0  0
   27.6478   25.7746   40.4540 F   0  0  0  0  0  0  0  0  0  0  0  0
   29.5416   24.3787   38.0224 H   0  0  0  0  0  0  0  0  0  0  0  0
   27.9852   23.7599   39.9247 H   0  0  0  0  0  0  0  0  0  0  0  0
  1  2  1  0  0  0  0
  1  3  1  0  0  0  0
  1  9  2  0  0  0  0
  3  4  1  0  0  0  0
  3  5  2  0  0  0  0
  5  6  1  0  0  0  0
  6  7  2  0  0  0  0
  6 26  1  0  0  0  0
  7  8  1  0  0  0  0
  7  9  1  0  0  0  0
  9 10  1  0  0  0  0
 10 11  1  0  0  0  0
 10 12  1  0  0  0  0
 12 13  2  0  0  0  0
 12 14  1  0  0  0  0
 14 15  1  0  0  0  0
 14 21  2  0  0  0  0
 15 16  2  0  0  0  0
 15 25  1  0  0  0  0
 16 17  1  0  0  0  0
 16 18  1  0  0  0  0
 18 19  2  0  0  0  0
 18 23  1  0  0  0  0
 19 20  1  0  0  0  0
 19 21  1  0  0  0  0
 21 22  1  0  0  0  0
 23 24  3  0  0  0  0
 26 27  1  0  0  0  0
 26 28  1  0  0  0  0
 28 29  2  0  0  0  0
 28 30  1  0  0  0  0
 30 31  1  0  0  0  0
 30 34  1  0  0  0  0
 30 36  1  0  0  0  0
 31 32  1  0  0  0  0
 31 33  1  0  0  0  0
 31 34  1  0  0  0  0
 34 35  1  0  0  0  0
 34 37  1  0  0  0  0
M  END
$$$$
tyk2_liang_jmc_36
  MOE2024           3D
tyk2_liang_jmc_36
 36 38  0  0  1  0  0  0  0  0999 V2000
   34.1775   34.7712   37.2542 C   0  0  0  0  0  0  0  0  0  0  0  0
   33.0146   34.5991   37.9998 C   0  0  0  0  0  0  0  0  0  0  0  0
   31.9719   33.8244   37.5030 C   0  0  0  0  0  0  0  0  0  0  0  0
   32.0813   33.2179   36.2380 C   0  0  0  0  0  0  0  0  0  0  0  0
   33.2676   33.3881   35.4977 C   0  0  0  0  0  0  0  0  0  0  0  0
   34.2981   34.1659   36.0102 C   0  0  0  0  0  0  0  0  0  0  0  0
   33.4437   32.6290   33.9419 Cl  0  0  0  0  0  0  0  0  0  0  0  0
   30.9901   32.4037   35.6556 C   0  0  0  0  0  0  0  0  0  0  0  0
   30.2946   32.8946   34.7830 O   0  0  0  0  0  0  0  0  0  0  0  0
   30.8393   31.1367   36.0883 N   0  0  0  0  0  0  0  0  0  0  0  0
   29.9383   30.1584   35.6554 C   0  0  0  0  0  0  0  0  0  0  0  0
   29.1619   30.2124   34.4810 C   0  0  0  0  0  0  0  0  0  0  0  0
   28.3885   29.1095   34.1311 C   0  0  0  0  0  0  0  0  0  0  0  0
   28.3665   28.0195   34.8925 N   0  0  0  0  0  0  0  0  0  0  0  0
   29.0770   27.9261   36.0158 C   0  0  0  0  0  0  0  0  0  0  0  0
   29.9160   28.9778   36.3905 C   0  0  0  0  0  0  0  0  0  0  0  0
   29.0587   26.7281   36.7389 N   0  0  0  0  0  0  0  0  0  0  0  0
   29.3056   26.5717   38.0662 C   0  0  0  0  0  0  0  0  0  0  0  0
   29.5681   27.5026   38.8083 O   0  0  0  0  0  0  0  0  0  0  0  0
   29.2614   25.1582   38.5941 C   0  0  3  0  0  0  0  0  0  0  0  0
   29.9173   24.8374   39.9412 C   0  0  0  0  0  0  0  0  0  0  0  0
   28.3930   24.8521   39.8104 C   0  0  3  0  0  0  0  0  0  0  0  0
   27.7042   25.9228   40.3826 F   0  0  0  0  0  0  0  0  0  0  0  0
   30.8363   33.6418   38.2760 F   0  0  0  0  0  0  0  0  0  0  0  0
   29.3266   24.3991   37.8216 H   0  0  0  0  0  0  0  0  0  0  0  0
   27.8841   23.8908   39.8419 H   0  0  0  0  0  0  0  0  0  0  0  0
   34.9846   35.3743   37.6430 H   0  0  0  0  0  0  0  0  0  0  0  0
   32.9199   35.0680   38.9684 H   0  0  0  0  0  0  0  0  0  0  0  0
   35.1996   34.2979   35.4308 H   0  0  0  0  0  0  0  0  0  0  0  0
   31.4306   30.7816   36.8268 H   0  0  0  0  0  0  0  0  0  0  0  0
   29.1745   31.1013   33.8670 H   0  0  0  0  0  0  0  0  0  0  0  0
   27.7935   29.1310   33.2300 H   0  0  0  0  0  0  0  0  0  0  0  0
   30.5514   28.8708   37.2581 H   0  0  0  0  0  0  0  0  0  0  0  0
   28.8448   25.8582   36.2717 H   0  0  0  0  0  0  0  0  0  0  0  0
   30.5467   23.9528   39.8390 H   0  0  0  0  0  0  0  0  0  0  0  0
   30.5280   25.6833   40.2604 H   0  0  0  0  0  0  0  0  0  0  0  0
  1  2  1  0  0  0  0
  1  6  2  0  0  0  0
  1 27  1  0  0  0  0
  2  3  2  0  0  0  0
  2 28  1  0  0  0  0
  3  4  1  0  0  0  0
  3 24  1  0  0  0  0
  4  5  2  0  0  0  0
  4  8  1  0  0  0  0
  5  6  1  0  0  0  0
  5  7  1  0  0  0  0
  6 29  1  0  0  0  0
  8  9  2  0  0  0  0
  8 10  1  0  0  0  0
 10 11  1  0  0  0  0
 10 30  1  0  0  0  0
 11 12  1  0  0  0  0
 11 16  2  0  0  0  0
 12 13  2  0  0  0  0
 12 31  1  0  0  0  0
 13 14  1  0  0  0  0
 13 32  1  0  0  0  0
 14 15  2  0  0  0  0
 15 16  1  0  0  0  0
 15 17  1  0  0  0  0
 16 33  1  0  0  0  0
 17 18  1  0  0  0  0
 17 34  1  0  0  0  0
 18 19  2  0  0  0  0
 18 20  1  0  0  0  0
 20 21  1  0  0  0  0
 20 22  1  0  0  0  0
 20 25  1  0  0  0  0
 21 22  1  0  0  0  0
 21 35  1  0  0  0  0
 21 36  1  0  0  0  0
 22 23  1  0  0  0  0
 22 26  1  0  0  0  0
M  END
$$$$
tyk2_liang_jmc_37
  MOE2024           3D
tyk2_liang_jmc_37
 37 39  0  0  1  0  0  0  0  0999 V2000
   34.1775   34.7712   37.2542 C   0  0  0  0  0  0  0  0  0  0  0  0
   33.0146   34.5991   37.9998 C   0  0  0  0  0  0  0  0  0  0  0  0
   31.9719   33.8244   37.5030 C   0  0  0  0  0  0  0  0  0  0  0  0
   32.0813   33.2179   36.2380 C   0  0  0  0  0  0  0  0  0  0  0  0
   33.2676   33.3881   35.4977 C   0  0  0  0  0  0  0  0  0  0  0  0
   34.2981   34.1659   36.0102 C   0  0  0  0  0  0  0  0  0  0  0  0
   33.4437   32.6290   33.9419 Cl  0  0  0  0  0  0  0  0  0  0  0  0
   30.9901   32.4037   35.6556 C   0  0  0  0  0  0  0  0  0  0  0  0
   30.2946   32.8946   34.7830 O   0  0  0  0  0  0  0  0  0  0  0  0
   30.8393   31.1367   36.0883 N   0  0  0  0  0  0  0  0  0  0  0  0
   29.9383   30.1584   35.6554 C   0  0  0  0  0  0  0  0  0  0  0  0
   29.1619   30.2124   34.4810 C   0  0  0  0  0  0  0  0  0  0  0  0
   28.3885   29.1095   34.1311 C   0  0  0  0  0  0  0  0  0  0  0  0
   28.3665   28.0195   34.8925 N   0  0  0  0  0  0  0  0  0  0  0  0
   29.0770   27.9261   36.0158 C   0  0  0  0  0  0  0  0  0  0  0  0
   29.9160   28.9778   36.3905 C   0  0  0  0  0  0  0  0  0  0  0  0
   29.0587   26.7281   36.7389 N   0  0  0  0  0  0  0  0  0  0  0  0
   29.3056   26.5717   38.0662 C   0  0  0  0  0  0  0  0  0  0  0  0
   29.5681   27.5026   38.8083 O   0  0  0  0  0  0  0  0  0  0  0  0
   29.2614   25.1582   38.5941 C   0  0  3  0  0  0  0  0  0  0  0  0
   29.9173   24.8374   39.9412 C   0  0  0  0  0  0  0  0  0  0  0  0
   28.3930   24.8521   39.8104 C   0  0  3  0  0  0  0  0  0  0  0  0
   27.7042   25.9228   40.3826 F   0  0  0  0  0  0  0  0  0  0  0  0
   30.8363   33.6418   38.2760 F   0  0  0  0  0  0  0  0  0  0  0  0
   29.3266   24.3991   37.8216 H   0  0  0  0  0  0  0  0  0  0  0  0
   27.8841   23.8908   39.8419 H   0  0  0  0  0  0  0  0  0  0  0  0
   32.9199   35.0680   38.9684 H   0  0  0  0  0  0  0  0  0  0  0  0
   35.1996   34.2979   35.4308 H   0  0  0  0  0  0  0  0  0  0  0  0
   31.4306   30.7816   36.8268 H   0  0  0  0  0  0  0  0  0  0  0  0
   29.1745   31.1013   33.8670 H   0  0  0  0  0  0  0  0  0  0  0  0
   27.7935   29.1310   33.2300 H   0  0  0  0  0  0  0  0  0  0  0  0
   30.5514   28.8708   37.2581 H   0  0  0  0  0  0  0  0  0  0  0  0
   28.8448   25.8582   36.2717 H   0  0  0  0  0  0  0  0  0  0  0  0
   30.5467   23.9528   39.8390 H   0  0  0  0  0  0  0  0  0  0  0  0
   30.5280   25.6833   40.2604 H   0  0  0  0  0  0  0  0  0  0  0  0
   35.1941   35.5317   37.7442 C   0  0  0  0  0  0  0  0  0  0  0  0
   36.0610   36.1792   38.1616 N   0  0  0  0  0  0  0  0  0  0  0  0
  1  2  1  0  0  0  0
  1  6  2  0  0  0  0
  1 36  1  0  0  0  0
  2  3  2  0  0  0  0
  2 27  1  0  0  0  0
  3  4  1  0  0  0  0
  3 24  1  0  0  0  0
  4  5  2  0  0  0  0
  4  8  1  0  0  0  0
  5  6  1  0  0  0  0
  5  7  1  0  0  0  0
  6 28  1  0  0  0  0
  8  9  2  0  0  0  0
  8 10  1  0  0  0  0
 10 11  1  0  0  0  0
 10 29  1  0  0  0  0
 11 12  1  0  0  0  0
 11 16  2  0  0  0  0
 12 13  2  0  0  0  0
 12 30  1  0  0  0  0
 13 14  1  0  0  0  0
 13 31  1  0  0  0  0
 14 15  2  0  0  0  0
 15 16  1  0  0  0  0
 15 17  1  0  0  0  0
 16 32  1  0  0  0  0
 17 18  1  0  0  0  0
 17 33  1  0  0  0  0
 18 19  2  0  0  0  0
 18 20  1  0  0  0  0
 20 21  1  0  0  0  0
 20 22  1  0  0  0  0
 20 25  1  0  0  0  0
 21 22  1  0  0  0  0
 21 34  1  0  0  0  0
 21 35  1  0  0  0  0
 22 23  1  0  0  0  0
 22 26  1  0  0  0  0
 36 37  3  0  0  0  0
M  END
$$$$
