tyk2_liang_ejmc_01_868
     RDKit          3D

 25 26  0  0  0  0  0  0  0  0999 V2000
   30.7206   32.7875   33.9622 Cl  0  0  0  0  0  0  0  0  0  0  0  0
   29.7071   28.4138   37.1101 Cl  0  0  0  0  0  0  0  0  0  0  0  0
   28.0588   29.7603   33.6933 C   0  0  0  0  0  0  0  0  0  0  0  0
   27.2773   29.4482   33.0163 H   0  0  0  0  0  0  0  0  0  0  0  0
   31.1946   32.1295   36.9873 N   0  0  0  0  0  0  0  0  0  0  0  0
   30.3809   32.7017   36.9385 H   0  0  0  0  0  0  0  0  0  0  0  0
   32.1726   30.1686   36.2992 O   0  0  0  0  0  0  0  0  0  0  0  0
   28.3507   28.9921   34.8277 C   0  0  0  0  0  0  0  0  0  0  0  0
   27.7983   28.0848   35.0221 H   0  0  0  0  0  0  0  0  0  0  0  0
   34.0537   33.7347   39.6313 N   0  0  0  0  0  0  0  0  0  0  0  0
   29.3605   29.3958   35.7119 C   0  0  0  0  0  0  0  0  0  0  0  0
   30.0706   30.5855   35.4652 C   0  0  0  0  0  0  0  0  0  0  0  0
   29.8098   31.3345   34.3036 C   0  0  0  0  0  0  0  0  0  0  0  0
   28.7878   30.9289   33.4321 C   0  0  0  0  0  0  0  0  0  0  0  0
   28.5707   31.5140   32.5511 H   0  0  0  0  0  0  0  0  0  0  0  0
   31.2330   30.9582   36.2981 C   0  0  0  0  0  0  0  0  0  0  0  0
   32.2047   32.6258   37.8655 C   0  0  0  0  0  0  0  0  0  0  0  0
   32.2721   34.0182   38.0544 C   0  0  0  0  0  0  0  0  0  0  0  0
   31.6013   34.6829   37.5339 H   0  0  0  0  0  0  0  0  0  0  0  0
   33.2225   34.5257   38.9563 C   0  0  0  0  0  0  0  0  0  0  0  0
   33.2953   35.5915   39.1290 H   0  0  0  0  0  0  0  0  0  0  0  0
   34.0125   32.4186   39.4602 C   0  0  0  0  0  0  0  0  0  0  0  0
   34.7121   31.8129   40.0219 H   0  0  0  0  0  0  0  0  0  0  0  0
   33.1152   31.8162   38.5742 C   0  0  0  0  0  0  0  0  0  0  0  0
   33.1666   30.7478   38.4692 H   0  0  0  0  0  0  0  0  0  0  0  0
  1 13  1  0
  2 11  1  0
  3  4  1  0
  3  8  2  0
  3 14  1  0
  5  6  1  0
  5 16  1  0
  5 17  1  0
  7 16  2  0
  8  9  1  0
  8 11  1  0
 10 20  2  0
 10 22  1  0
 11 12  2  0
 12 13  1  0
 12 16  1  0
 13 14  2  0
 14 15  1  0
 17 18  2  0
 17 24  1  0
 18 19  1  0
 18 20  1  0
 20 21  1  0
 22 23  1  0
 22 24  2  0
 24 25  1  0
M  END
> <intraLJ>
23.617    

> <intraEL>
-6.287    

> <intraDihe>
8.644     

> <interLJ>
0.000     

> <interEJ>
0.000     

> <gridLJ>
-5.928    

> <gridEL>
0.000     

> <totalE>
20.047    

> <LGFE>
-5.928  

> <LE>
-0.349  

> <SMILES>
O=C(Nc1ccncc1)c1c(Cl)cccc1Cl

> <atom.dprop.GFE>
-1.5660 -1.5050 -0.2710 0.0000 -0.9080 0.0000 -0.2060 -0.2919 0.0000 -0.2710 -0.2806 -0.2149 -0.1839 -0.2099 0.0000 0.0000 -0.0304 0.0394 0.0000 0.0303 0.0000 -0.0356 0.0000 -0.0234 0.0000

> <atom.prop.CLASS>
CLBX CLBX BENC NCLA FORN NCLA FORO BENC NCLA IMIN BENC BENC BENC BENC NCLA NCLA BENC BENC NCLA GEHC NCLA GEHC NCLA BENC NCLA

> <cluster_id>
1

> <rmsd_to_cluster_rep>
0.00    

> <ligRMSD>
6.23    

> <ligCOMD>
0.90    

$$$$
tyk2_liang_ejmc_02_1066
     RDKit          3D

 25 26  0  0  0  0  0  0  0  0999 V2000
   32.0361   32.5879   38.2795 H   0  0  0  0  0  0  0  0  0  0  0  0
   31.9496   32.3271   33.9704 H   0  0  0  0  0  0  0  0  0  0  0  0
   33.8585   34.3049   35.9794 C   0  0  0  0  0  0  0  0  0  0  0  0
   34.6315   35.0568   35.9198 H   0  0  0  0  0  0  0  0  0  0  0  0
   30.1377   30.8904   35.1578 N   0  0  0  0  0  0  0  0  0  0  0  0
   30.2772   31.3635   34.2926 H   0  0  0  0  0  0  0  0  0  0  0  0
   30.7800   30.7291   37.3534 O   0  0  0  0  0  0  0  0  0  0  0  0
   33.3390   33.7383   34.8078 C   0  0  0  0  0  0  0  0  0  0  0  0
   33.7161   34.0510   33.8454 H   0  0  0  0  0  0  0  0  0  0  0  0
   27.3794   27.7278   34.7802 N   0  0  0  0  0  0  0  0  0  0  0  0
   32.3315   32.7651   34.8816 C   0  0  0  0  0  0  0  0  0  0  0  0
   31.8372   32.3635   36.1337 C   0  0  0  0  0  0  0  0  0  0  0  0
   32.3834   32.9089   37.3072 C   0  0  0  0  0  0  0  0  0  0  0  0
   33.3810   33.8886   37.2283 C   0  0  0  0  0  0  0  0  0  0  0  0
   33.7888   34.3164   38.1323 H   0  0  0  0  0  0  0  0  0  0  0  0
   30.8647   31.2561   36.2487 C   0  0  0  0  0  0  0  0  0  0  0  0
   29.1987   29.8135   35.0937 C   0  0  0  0  0  0  0  0  0  0  0  0
   28.2536   29.8342   34.0510 C   0  0  0  0  0  0  0  0  0  0  0  0
   28.2231   30.6488   33.3452 H   0  0  0  0  0  0  0  0  0  0  0  0
   27.3582   28.7572   33.9361 C   0  0  0  0  0  0  0  0  0  0  0  0
   26.6223   28.7400   33.1429 H   0  0  0  0  0  0  0  0  0  0  0  0
   28.2593   27.6882   35.7733 C   0  0  0  0  0  0  0  0  0  0  0  0
   28.2360   26.8347   36.4388 H   0  0  0  0  0  0  0  0  0  0  0  0
   29.1808   28.7167   35.9800 C   0  0  0  0  0  0  0  0  0  0  0  0
   29.8352   28.6229   36.8271 H   0  0  0  0  0  0  0  0  0  0  0  0
  1 13  1  0
  2 11  1  0
  3  4  1  0
  3  8  2  0
  3 14  1  0
  5  6  1  0
  5 16  1  0
  5 17  1  0
  7 16  2  0
  8  9  1  0
  8 11  1  0
 10 20  2  0
 10 22  1  0
 11 12  2  0
 12 13  1  0
 12 16  1  0
 13 14  2  0
 14 15  1  0
 17 18  2  0
 17 24  1  0
 18 19  1  0
 18 20  1  0
 20 21  1  0
 22 23  1  0
 22 24  2  0
 24 25  1  0
M  END
> <intraLJ>
24.926    

> <intraEL>
-3.831    

> <intraDihe>
2.301     

> <interLJ>
0.000     

> <interEJ>
0.000     

> <gridLJ>
-4.339    

> <gridEL>
0.000     

> <totalE>
19.057    

> <LGFE>
-4.339  

> <LE>
-0.289  

> <SMILES>
O=C(Nc1ccncc1)c1ccccc1

> <atom.dprop.GFE>
0.0000 0.0000 0.1655 0.0000 -0.6230 0.0000 -0.6870 -0.0259 0.0000 -1.7190 -0.0922 0.0301 -0.0631 0.0514 0.0000 0.0000 -0.3086 -0.2248 0.0000 -0.2234 0.0000 -0.3453 0.0000 -0.2735 0.0000

> <atom.prop.CLASS>
NCLA NCLA BENC NCLA FORN NCLA FORO BENC NCLA IMIN BENC BENC BENC BENC NCLA NCLA BENC BENC NCLA GEHC NCLA GEHC NCLA BENC NCLA

> <cluster_id>
1

> <rmsd_to_cluster_rep>
0.00    

> <ligRMSD>
1.48    

> <ligCOMD>
1.03    

$$$$
tyk2_liang_ejmc_03_189
     RDKit          3D

 25 26  0  0  0  0  0  0  0  0999 V2000
   30.3991   33.2854   38.3741 Cl  0  0  0  0  0  0  0  0  0  0  0  0
   32.3685   31.8837   34.1076 H   0  0  0  0  0  0  0  0  0  0  0  0
   33.2443   34.6620   35.8689 C   0  0  0  0  0  0  0  0  0  0  0  0
   33.9284   35.4967   35.8267 H   0  0  0  0  0  0  0  0  0  0  0  0
   29.8134   30.9246   35.0764 N   0  0  0  0  0  0  0  0  0  0  0  0
   29.8312   31.4473   34.2288 H   0  0  0  0  0  0  0  0  0  0  0  0
   30.6583   30.7341   37.2017 O   0  0  0  0  0  0  0  0  0  0  0  0
   33.2419   33.7040   34.8462 C   0  0  0  0  0  0  0  0  0  0  0  0
   33.9293   33.7975   34.0183 H   0  0  0  0  0  0  0  0  0  0  0  0
   27.2883   27.5654   34.7645 N   0  0  0  0  0  0  0  0  0  0  0  0
   32.3499   32.6232   34.8956 C   0  0  0  0  0  0  0  0  0  0  0  0
   31.4532   32.5049   35.9700 C   0  0  0  0  0  0  0  0  0  0  0  0
   31.4822   33.4441   37.0153 C   0  0  0  0  0  0  0  0  0  0  0  0
   32.3648   34.5317   36.9521 C   0  0  0  0  0  0  0  0  0  0  0  0
   32.3735   35.2633   37.7460 H   0  0  0  0  0  0  0  0  0  0  0  0
   30.6031   31.3041   36.1158 C   0  0  0  0  0  0  0  0  0  0  0  0
   28.9589   29.7799   35.0398 C   0  0  0  0  0  0  0  0  0  0  0  0
   27.9399   29.7639   34.0698 C   0  0  0  0  0  0  0  0  0  0  0  0
   27.7945   30.5987   33.4030 H   0  0  0  0  0  0  0  0  0  0  0  0
   27.1258   28.6229   33.9723 C   0  0  0  0  0  0  0  0  0  0  0  0
   26.3381   28.5769   33.2317 H   0  0  0  0  0  0  0  0  0  0  0  0
   28.2374   27.5637   35.6930 C   0  0  0  0  0  0  0  0  0  0  0  0
   28.3291   26.6872   36.3216 H   0  0  0  0  0  0  0  0  0  0  0  0
   29.0889   28.6560   35.8812 C   0  0  0  0  0  0  0  0  0  0  0  0
   29.8103   28.5879   36.6749 H   0  0  0  0  0  0  0  0  0  0  0  0
  1 13  1  0
  2 11  1  0
  3  4  1  0
  3  8  2  0
  3 14  1  0
  5  6  1  0
  5 16  1  0
  5 17  1  0
  7 16  2  0
  8  9  1  0
  8 11  1  0
 10 20  2  0
 10 22  1  0
 11 12  2  0
 12 13  1  0
 12 16  1  0
 13 14  2  0
 14 15  1  0
 17 18  2  0
 17 24  1  0
 18 19  1  0
 18 20  1  0
 20 21  1  0
 22 23  1  0
 22 24  2  0
 24 25  1  0
M  END
> <intraLJ>
25.336    

> <intraEL>
-4.667    

> <intraDihe>
6.209     

> <interLJ>
0.000     

> <interEJ>
0.000     

> <gridLJ>
-5.177    

> <gridEL>
0.000     

> <totalE>
21.701    

> <LGFE>
-5.177  

> <LE>
-0.324  

> <SMILES>
O=C(Nc1ccncc1)c1ccccc1Cl

> <atom.dprop.GFE>
-0.5900 0.0000 0.0620 0.0000 -0.6230 0.0000 -0.6870 -0.0259 0.0000 -1.7190 -0.0922 -0.0381 -0.0631 0.0307 0.0000 0.0000 -0.3086 -0.2919 0.0000 -0.2234 0.0000 -0.3453 0.0000 -0.2622 0.0000

> <atom.prop.CLASS>
CLBX NCLA BENC NCLA FORN NCLA FORO BENC NCLA IMIN BENC BENC BENC BENC NCLA NCLA BENC BENC NCLA GEHC NCLA GEHC NCLA BENC NCLA

> <cluster_id>
1

> <rmsd_to_cluster_rep>
0.00    

> <ligRMSD>
1.56    

> <ligCOMD>
1.15    

$$$$
tyk2_liang_ejmc_04_970
     RDKit          3D

 28 29  0  0  0  0  0  0  0  0999 V2000
   30.6080   33.3533   38.1621 C   0  0  0  0  0  0  0  0  0  0  0  0
   29.5717   33.1884   37.7960 H   0  0  0  0  0  0  0  0  0  0  0  0
   30.6308   34.2762   38.7808 H   0  0  0  0  0  0  0  0  0  0  0  0
   30.9344   32.4887   38.7792 H   0  0  0  0  0  0  0  0  0  0  0  0
   32.4931   31.9378   34.0890 H   0  0  0  0  0  0  0  0  0  0  0  0
   33.3153   34.7190   35.8680 C   0  0  0  0  0  0  0  0  0  0  0  0
   33.9943   35.5587   35.8390 H   0  0  0  0  0  0  0  0  0  0  0  0
   29.8729   30.9999   35.0234 N   0  0  0  0  0  0  0  0  0  0  0  0
   29.8684   31.5534   34.1954 H   0  0  0  0  0  0  0  0  0  0  0  0
   30.7811   30.7193   37.1103 O   0  0  0  0  0  0  0  0  0  0  0  0
   33.3375   33.7634   34.8451 C   0  0  0  0  0  0  0  0  0  0  0  0
   34.0379   33.8646   34.0290 H   0  0  0  0  0  0  0  0  0  0  0  0
   27.3485   27.6442   34.6655 N   0  0  0  0  0  0  0  0  0  0  0  0
   32.4545   32.6750   34.8785 C   0  0  0  0  0  0  0  0  0  0  0  0
   31.5404   32.5461   35.9383 C   0  0  0  0  0  0  0  0  0  0  0  0
   31.5377   33.4904   36.9855 C   0  0  0  0  0  0  0  0  0  0  0  0
   32.4198   34.5803   36.9338 C   0  0  0  0  0  0  0  0  0  0  0  0
   32.4164   35.3135   37.7270 H   0  0  0  0  0  0  0  0  0  0  0  0
   30.6904   31.3418   36.0563 C   0  0  0  0  0  0  0  0  0  0  0  0
   29.0242   29.8503   34.9660 C   0  0  0  0  0  0  0  0  0  0  0  0
   27.9263   29.8954   34.0867 C   0  0  0  0  0  0  0  0  0  0  0  0
   27.7195   30.7768   33.5011 H   0  0  0  0  0  0  0  0  0  0  0  0
   27.1126   28.7555   33.9714 C   0  0  0  0  0  0  0  0  0  0  0  0
   26.2639   28.7559   33.3000 H   0  0  0  0  0  0  0  0  0  0  0  0
   28.3748   27.5810   35.5050 C   0  0  0  0  0  0  0  0  0  0  0  0
   28.5249   26.6603   36.0542 H   0  0  0  0  0  0  0  0  0  0  0  0
   29.2330   28.6654   35.7018 C   0  0  0  0  0  0  0  0  0  0  0  0
   30.0186   28.5427   36.4245 H   0  0  0  0  0  0  0  0  0  0  0  0
  1  2  1  0
  1  3  1  0
  1  4  1  0
  1 16  1  0
  5 14  1  0
  6  7  1  0
  6 11  2  0
  6 17  1  0
  8  9  1  0
  8 19  1  0
  8 20  1  0
 10 19  2  0
 11 12  1  0
 11 14  1  0
 13 23  2  0
 13 25  1  0
 14 15  2  0
 15 16  1  0
 15 19  1  0
 16 17  2  0
 17 18  1  0
 20 21  2  0
 20 27  1  0
 21 22  1  0
 21 23  1  0
 23 24  1  0
 25 26  1  0
 25 27  2  0
 27 28  1  0
M  END
> <intraLJ>
25.273    

> <intraEL>
-5.567    

> <intraDihe>
7.038     

> <interLJ>
0.000     

> <interEJ>
0.000     

> <gridLJ>
-4.592    

> <gridEL>
0.000     

> <totalE>
22.152    

> <LGFE>
-4.592  

> <LE>
-0.287  

> <SMILES>
Cc1ccccc1C(=O)Nc1ccncc1

> <atom.dprop.GFE>
-0.2051 0.0000 0.0000 0.0000 0.0000 0.0620 0.0000 -0.6230 0.0000 -0.6870 -0.0259 0.0000 -1.7190 -0.0038 -0.0381 -0.0631 0.0579 0.0000 0.0000 -0.2911 -0.2248 0.0000 -0.2234 0.0000 -0.3453 0.0000 -0.2622 0.0000

> <atom.prop.CLASS>
PRPC NCLA NCLA NCLA NCLA BENC NCLA FORN NCLA FORO BENC NCLA IMIN BENC BENC BENC BENC NCLA NCLA BENC BENC NCLA GEHC NCLA GEHC NCLA BENC NCLA

> <cluster_id>
1

> <rmsd_to_cluster_rep>
0.00    

> <ligRMSD>
1.50    

> <ligCOMD>
1.00    

$$$$
tyk2_liang_ejmc_05_819
     RDKit          3D

 28 29  0  0  0  0  0  0  0  0999 V2000
   31.3924   32.7709   38.1794 C   0  0  0  0  0  0  0  0  0  0  0  0
   30.0808   32.4663   38.1507 F   0  0  0  0  0  0  0  0  0  0  0  0
   31.4986   33.7622   39.0742 F   0  0  0  0  0  0  0  0  0  0  0  0
   32.0079   31.7100   38.7309 F   0  0  0  0  0  0  0  0  0  0  0  0
   31.9666   32.0757   33.5442 H   0  0  0  0  0  0  0  0  0  0  0  0
   33.3516   34.5333   35.4342 C   0  0  0  0  0  0  0  0  0  0  0  0
   34.0175   35.3795   35.3433 H   0  0  0  0  0  0  0  0  0  0  0  0
   29.6711   30.9597   35.0927 N   0  0  0  0  0  0  0  0  0  0  0  0
   29.3789   31.7012   34.4957 H   0  0  0  0  0  0  0  0  0  0  0  0
   31.2875   30.2298   36.5484 O   0  0  0  0  0  0  0  0  0  0  0  0
   33.0391   33.7667   34.3090 C   0  0  0  0  0  0  0  0  0  0  0  0
   33.4673   34.0189   33.3497 H   0  0  0  0  0  0  0  0  0  0  0  0
   27.0913   27.6318   34.9219 N   0  0  0  0  0  0  0  0  0  0  0  0
   32.1788   32.6688   34.4233 C   0  0  0  0  0  0  0  0  0  0  0  0
   31.6210   32.3336   35.6682 C   0  0  0  0  0  0  0  0  0  0  0  0
   31.9386   33.1023   36.8267 C   0  0  0  0  0  0  0  0  0  0  0  0
   32.8105   34.2033   36.6794 C   0  0  0  0  0  0  0  0  0  0  0  0
   33.0836   34.8142   37.5292 H   0  0  0  0  0  0  0  0  0  0  0  0
   30.8357   31.0763   35.7825 C   0  0  0  0  0  0  0  0  0  0  0  0
   28.7824   29.8412   35.1138 C   0  0  0  0  0  0  0  0  0  0  0  0
   27.9079   29.6972   34.0218 C   0  0  0  0  0  0  0  0  0  0  0  0
   27.8889   30.4247   33.2261 H   0  0  0  0  0  0  0  0  0  0  0  0
   27.0770   28.5655   33.9732 C   0  0  0  0  0  0  0  0  0  0  0  0
   26.4023   28.4212   33.1395 H   0  0  0  0  0  0  0  0  0  0  0  0
   27.8956   27.7591   35.9713 C   0  0  0  0  0  0  0  0  0  0  0  0
   27.8676   26.9837   36.7262 H   0  0  0  0  0  0  0  0  0  0  0  0
   28.7495   28.8572   36.1229 C   0  0  0  0  0  0  0  0  0  0  0  0
   29.3519   28.9012   37.0121 H   0  0  0  0  0  0  0  0  0  0  0  0
  1  2  1  0
  1  3  1  0
  1  4  1  0
  1 16  1  0
  5 14  1  0
  6  7  1  0
  6 11  2  0
  6 17  1  0
  8  9  1  0
  8 19  1  0
  8 20  1  0
 10 19  2  0
 11 12  1  0
 11 14  1  0
 13 23  2  0
 13 25  1  0
 14 15  2  0
 15 16  1  0
 15 19  1  0
 16 17  2  0
 17 18  1  0
 20 21  2  0
 20 27  1  0
 21 22  1  0
 21 23  1  0
 23 24  1  0
 25 26  1  0
 25 27  2  0
 27 28  1  0
M  END
> <intraLJ>
28.170    

> <intraEL>
-3.107    

> <intraDihe>
9.535     

> <interLJ>
0.000     

> <interEJ>
0.000     

> <gridLJ>
-5.201    

> <gridEL>
0.000     

> <totalE>
29.397    

> <LGFE>
-5.201  

> <LE>
-0.274  

> <SMILES>
O=C(Nc1ccncc1)c1ccccc1C(F)(F)F

> <atom.dprop.GFE>
-0.9150 0.0000 0.0000 0.0000 0.0000 0.0620 0.0000 -0.6230 0.0000 -0.5020 -0.0259 0.0000 -1.7190 -0.0922 -0.0381 0.0065 0.0579 0.0000 0.0000 -0.3086 -0.2919 0.0000 -0.2234 0.0000 -0.3453 0.0000 -0.2430 0.0000

> <atom.prop.CLASS>
TFEC NCLA NCLA NCLA NCLA BENC NCLA FORN NCLA FORO BENC NCLA IMIN BENC BENC BENC BENC NCLA NCLA BENC BENC NCLA GEHC NCLA GEHC NCLA BENC NCLA

> <cluster_id>
1

> <rmsd_to_cluster_rep>
0.00    

> <ligRMSD>
1.68    

> <ligCOMD>
1.13    

$$$$
tyk2_liang_ejmc_06_720
     RDKit          3D

 25 26  0  0  0  0  0  0  0  0999 V2000
   28.5027   28.7547   36.3114 F   0  0  0  0  0  0  0  0  0  0  0  0
   27.4754   30.1911   33.1428 C   0  0  0  0  0  0  0  0  0  0  0  0
   26.7447   30.0178   32.3666 H   0  0  0  0  0  0  0  0  0  0  0  0
   30.6010   32.0291   36.7947 N   0  0  0  0  0  0  0  0  0  0  0  0
   29.9448   32.7563   36.6143 H   0  0  0  0  0  0  0  0  0  0  0  0
   31.2116   29.8693   36.3076 O   0  0  0  0  0  0  0  0  0  0  0  0
   27.5254   29.3503   34.2596 C   0  0  0  0  0  0  0  0  0  0  0  0
   26.8364   28.5231   34.3430 H   0  0  0  0  0  0  0  0  0  0  0  0
   33.3828   33.1730   39.7472 N   0  0  0  0  0  0  0  0  0  0  0  0
   28.4739   29.5979   35.2493 C   0  0  0  0  0  0  0  0  0  0  0  0
   29.3723   30.6696   35.1710 C   0  0  0  0  0  0  0  0  0  0  0  0
   29.3445   31.4796   34.0240 C   0  0  0  0  0  0  0  0  0  0  0  0
   30.4831   32.7854   33.8374 Cl  0  0  0  0  0  0  0  0  0  0  0  0
   28.3842   31.2501   33.0295 C   0  0  0  0  0  0  0  0  0  0  0  0
   28.3557   31.8890   32.1591 H   0  0  0  0  0  0  0  0  0  0  0  0
   30.4737   30.8377   36.1501 C   0  0  0  0  0  0  0  0  0  0  0  0
   31.5784   32.3606   37.7825 C   0  0  0  0  0  0  0  0  0  0  0  0
   31.8748   33.7235   37.9678 C   0  0  0  0  0  0  0  0  0  0  0  0
   31.3990   34.4822   37.3672 H   0  0  0  0  0  0  0  0  0  0  0  0
   32.7914   34.0792   38.9716 C   0  0  0  0  0  0  0  0  0  0  0  0
   33.0340   35.1197   39.1439 H   0  0  0  0  0  0  0  0  0  0  0  0
   33.1263   31.8808   39.5795 C   0  0  0  0  0  0  0  0  0  0  0  0
   33.6362   31.1763   40.2242 H   0  0  0  0  0  0  0  0  0  0  0  0
   32.2425   31.4220   38.5975 C   0  0  0  0  0  0  0  0  0  0  0  0
   32.1101   30.3593   38.5056 H   0  0  0  0  0  0  0  0  0  0  0  0
  1 10  1  0
  2  3  1  0
  2  7  2  0
  2 14  1  0
  4  5  1  0
  4 16  1  0
  4 17  1  0
  6 16  2  0
  7  8  1  0
  7 10  1  0
  9 20  2  0
  9 22  1  0
 10 11  2  0
 11 12  1  0
 11 16  1  0
 12 13  1  0
 12 14  2  0
 14 15  1  0
 17 18  2  0
 17 24  1  0
 18 19  1  0
 18 20  1  0
 20 21  1  0
 22 23  1  0
 22 24  2  0
 24 25  1  0
M  END
> <intraLJ>
23.805    

> <intraEL>
-5.901    

> <intraDihe>
7.671     

> <interLJ>
0.000     

> <interEJ>
0.000     

> <gridLJ>
-5.934    

> <gridEL>
0.000     

> <totalE>
19.641    

> <LGFE>
-5.934  

> <LE>
-0.349  

> <SMILES>
O=C(Nc1ccncc1)c1c(F)cccc1Cl

> <atom.dprop.GFE>
-1.2500 -0.2254 0.0000 -0.6360 0.0000 -0.5020 -0.2919 0.0000 -0.3830 -0.2806 -0.3086 -0.2405 -1.5660 -0.2099 0.0000 0.0000 -0.0304 -0.0631 0.0000 0.0303 0.0000 0.0253 0.0000 -0.0018 0.0000

> <atom.prop.CLASS>
FLBX BENC NCLA FORN NCLA FORO BENC NCLA IMIN BENC BENC BENC CLBX BENC NCLA NCLA BENC BENC NCLA GEHC NCLA GEHC NCLA BENC NCLA

> <cluster_id>
1

> <rmsd_to_cluster_rep>
0.00    

> <ligRMSD>
6.21    

> <ligCOMD>
1.05    

$$$$
tyk2_liang_ejmc_07_565
     RDKit          3D

 25 26  0  0  0  0  0  0  0  0999 V2000
   29.3811   31.7388   33.8488 F   0  0  0  0  0  0  0  0  0  0  0  0
   27.7280   28.5438   34.3005 C   0  0  0  0  0  0  0  0  0  0  0  0
   27.0749   27.8811   33.7519 H   0  0  0  0  0  0  0  0  0  0  0  0
   31.3486   31.7868   36.0071 N   0  0  0  0  0  0  0  0  0  0  0  0
   31.6119   31.5572   35.0745 H   0  0  0  0  0  0  0  0  0  0  0  0
   29.8025   31.4441   37.6720 O   0  0  0  0  0  0  0  0  0  0  0  0
   28.1564   29.7427   33.7257 C   0  0  0  0  0  0  0  0  0  0  0  0
   27.8267   30.0084   32.7321 H   0  0  0  0  0  0  0  0  0  0  0  0
   33.8145   34.7522   37.7045 N   0  0  0  0  0  0  0  0  0  0  0  0
   29.0009   30.5821   34.4450 C   0  0  0  0  0  0  0  0  0  0  0  0
   29.4586   30.2614   35.7290 C   0  0  0  0  0  0  0  0  0  0  0  0
   28.9793   29.0757   36.2990 C   0  0  0  0  0  0  0  0  0  0  0  0
   29.3604   28.7119   37.5549 F   0  0  0  0  0  0  0  0  0  0  0  0
   28.1425   28.2117   35.5952 C   0  0  0  0  0  0  0  0  0  0  0  0
   27.8011   27.2902   36.0427 H   0  0  0  0  0  0  0  0  0  0  0  0
   30.2341   31.2237   36.5448 C   0  0  0  0  0  0  0  0  0  0  0  0
   32.1975   32.7508   36.6316 C   0  0  0  0  0  0  0  0  0  0  0  0
   32.9272   33.6126   35.7923 C   0  0  0  0  0  0  0  0  0  0  0  0
   32.8641   33.5283   34.7192 H   0  0  0  0  0  0  0  0  0  0  0  0
   33.7273   34.6044   36.3843 C   0  0  0  0  0  0  0  0  0  0  0  0
   34.2948   35.2876   35.7660 H   0  0  0  0  0  0  0  0  0  0  0  0
   33.1429   33.9414   38.5139 C   0  0  0  0  0  0  0  0  0  0  0  0
   33.2496   34.0898   39.5809 H   0  0  0  0  0  0  0  0  0  0  0  0
   32.3323   32.9125   38.0252 C   0  0  0  0  0  0  0  0  0  0  0  0
   31.8448   32.2807   38.7451 H   0  0  0  0  0  0  0  0  0  0  0  0
  1 10  1  0
  2  3  1  0
  2  7  2  0
  2 14  1  0
  4  5  1  0
  4 16  1  0
  4 17  1  0
  6 16  2  0
  7  8  1  0
  7 10  1  0
  9 20  2  0
  9 22  1  0
 10 11  2  0
 11 12  1  0
 11 16  1  0
 12 13  1  0
 12 14  2  0
 14 15  1  0
 17 18  2  0
 17 24  1  0
 18 19  1  0
 18 20  1  0
 20 21  1  0
 22 23  1  0
 22 24  2  0
 24 25  1  0
M  END
> <intraLJ>
23.508    

> <intraEL>
-9.015    

> <intraDihe>
6.463     

> <interLJ>
0.000     

> <interEJ>
0.000     

> <gridLJ>
-4.752    

> <gridEL>
0.000     

> <totalE>
16.203    

> <LGFE>
-4.752  

> <LE>
-0.280  

> <SMILES>
O=C(Nc1ccncc1)c1c(F)cccc1F

> <atom.dprop.GFE>
-1.1380 -0.2939 0.0000 -0.6360 0.0000 -0.4590 -0.2710 0.0000 0.0470 -0.2911 -0.2149 -0.2430 -1.1490 -0.2635 0.0000 0.0000 0.0301 -0.0180 0.0000 0.1475 0.0000 0.0303 0.0000 -0.0296 0.0000

> <atom.prop.CLASS>
FLBX BENC NCLA FORN NCLA FORO BENC NCLA IMIN BENC BENC BENC FLBX BENC NCLA NCLA BENC BENC NCLA GEHC NCLA GEHC NCLA BENC NCLA

> <cluster_id>
1

> <rmsd_to_cluster_rep>
0.00    

> <ligRMSD>
6.07    

> <ligCOMD>
0.84    

$$$$
tyk2_liang_ejmc_08_781
     RDKit          3D

 28 29  0  0  0  0  0  0  0  0999 V2000
   28.4950   28.7823   36.6418 C   0  0  0  0  0  0  0  0  0  0  0  0
   27.7527   27.9602   36.5500 H   0  0  0  0  0  0  0  0  0  0  0  0
   28.2524   29.3969   37.5347 H   0  0  0  0  0  0  0  0  0  0  0  0
   29.5115   28.3448   36.7441 H   0  0  0  0  0  0  0  0  0  0  0  0
   27.4570   30.1862   33.2774 C   0  0  0  0  0  0  0  0  0  0  0  0
   26.7162   29.9914   32.5157 H   0  0  0  0  0  0  0  0  0  0  0  0
   30.5496   32.0469   36.9761 N   0  0  0  0  0  0  0  0  0  0  0  0
   29.8372   32.7338   36.8648 H   0  0  0  0  0  0  0  0  0  0  0  0
   31.3070   29.9852   36.3122 O   0  0  0  0  0  0  0  0  0  0  0  0
   27.4974   29.4035   34.4345 C   0  0  0  0  0  0  0  0  0  0  0  0
   26.7894   28.5974   34.5596 H   0  0  0  0  0  0  0  0  0  0  0  0
   33.3199   33.1783   39.9508 N   0  0  0  0  0  0  0  0  0  0  0  0
   28.4559   29.6572   35.4293 C   0  0  0  0  0  0  0  0  0  0  0  0
   29.3765   30.7129   35.2722 C   0  0  0  0  0  0  0  0  0  0  0  0
   29.3530   31.4701   34.0866 C   0  0  0  0  0  0  0  0  0  0  0  0
   30.4773   32.7744   33.8371 Cl  0  0  0  0  0  0  0  0  0  0  0  0
   28.3851   31.2184   33.1056 C   0  0  0  0  0  0  0  0  0  0  0  0
   28.3615   31.8202   32.2093 H   0  0  0  0  0  0  0  0  0  0  0  0
   30.4909   30.9001   36.2407 C   0  0  0  0  0  0  0  0  0  0  0  0
   31.5200   32.3771   37.9740 C   0  0  0  0  0  0  0  0  0  0  0  0
   31.7444   33.7421   38.2344 C   0  0  0  0  0  0  0  0  0  0  0  0
   31.2159   34.5059   37.6868 H   0  0  0  0  0  0  0  0  0  0  0  0
   32.6619   34.0918   39.2402 C   0  0  0  0  0  0  0  0  0  0  0  0
   32.8501   35.1329   39.4677 H   0  0  0  0  0  0  0  0  0  0  0  0
   33.1310   31.8853   39.7123 C   0  0  0  0  0  0  0  0  0  0  0  0
   33.6934   31.1751   40.3051 H   0  0  0  0  0  0  0  0  0  0  0  0
   32.2518   31.4333   38.7218 C   0  0  0  0  0  0  0  0  0  0  0  0
   32.1753   30.3720   38.5688 H   0  0  0  0  0  0  0  0  0  0  0  0
  1  2  1  0
  1  3  1  0
  1  4  1  0
  1 13  1  0
  5  6  1  0
  5 10  2  0
  5 17  1  0
  7  8  1  0
  7 19  1  0
  7 20  1  0
  9 19  2  0
 10 11  1  0
 10 13  1  0
 12 23  2  0
 12 25  1  0
 13 14  2  0
 14 15  1  0
 14 19  1  0
 15 16  1  0
 15 17  2  0
 17 18  1  0
 20 21  2  0
 20 27  1  0
 21 22  1  0
 21 23  1  0
 23 24  1  0
 25 26  1  0
 25 27  2  0
 27 28  1  0
M  END
> <intraLJ>
23.783    

> <intraEL>
-6.982    

> <intraDihe>
8.824     

> <interLJ>
0.000     

> <interEJ>
0.000     

> <gridLJ>
-5.383    

> <gridEL>
0.000     

> <totalE>
20.243    

> <LGFE>
-5.383  

> <LE>
-0.317  

> <SMILES>
Cc1cccc(Cl)c1C(=O)Nc1ccncc1

> <atom.dprop.GFE>
-0.5258 0.0000 0.0000 0.0000 -0.2254 0.0000 -0.9080 0.0000 -0.5020 -0.2919 0.0000 -0.3830 -0.2806 -0.3086 -0.2405 -1.5660 -0.2099 0.0000 0.0000 -0.0304 -0.0296 0.0000 0.0956 0.0000 0.0253 0.0000 -0.0018 0.0000

> <atom.prop.CLASS>
PRPC NCLA NCLA NCLA BENC NCLA FORN NCLA FORO BENC NCLA IMIN BENC BENC BENC CLBX BENC NCLA NCLA BENC BENC NCLA GEHC NCLA GEHC NCLA BENC NCLA

> <cluster_id>
1

> <rmsd_to_cluster_rep>
0.00    

> <ligRMSD>
6.24    

> <ligCOMD>
1.74    

$$$$
tyk2_liang_ejmc_09_651
     RDKit          3D

 27 28  0  0  0  0  0  0  0  0999 V2000
   32.4100   31.8633   34.0035 N   0  0  0  0  0  0  0  0  0  0  0  0
   33.2430   31.9868   33.4656 H   0  0  0  0  0  0  0  0  0  0  0  0
   32.0775   30.9418   34.2041 H   0  0  0  0  0  0  0  0  0  0  0  0
   33.3548   34.5766   36.3097 C   0  0  0  0  0  0  0  0  0  0  0  0
   34.0306   35.4191   36.3302 H   0  0  0  0  0  0  0  0  0  0  0  0
   29.7617   30.9836   35.3838 N   0  0  0  0  0  0  0  0  0  0  0  0
   29.6316   31.6738   34.6774 H   0  0  0  0  0  0  0  0  0  0  0  0
   31.0084   30.3637   37.2100 O   0  0  0  0  0  0  0  0  0  0  0  0
   33.2878   33.7584   35.1787 C   0  0  0  0  0  0  0  0  0  0  0  0
   33.9257   33.9788   34.3337 H   0  0  0  0  0  0  0  0  0  0  0  0
   27.2597   27.6369   34.8189 N   0  0  0  0  0  0  0  0  0  0  0  0
   32.4108   32.6641   35.1430 C   0  0  0  0  0  0  0  0  0  0  0  0
   31.5761   32.3915   36.2527 C   0  0  0  0  0  0  0  0  0  0  0  0
   31.6772   33.2025   37.4001 C   0  0  0  0  0  0  0  0  0  0  0  0
   30.6866   32.9073   38.8013 Cl  0  0  0  0  0  0  0  0  0  0  0  0
   32.5498   34.2972   37.4177 C   0  0  0  0  0  0  0  0  0  0  0  0
   32.6051   34.9243   38.2952 H   0  0  0  0  0  0  0  0  0  0  0  0
   30.7399   31.1601   36.3151 C   0  0  0  0  0  0  0  0  0  0  0  0
   28.9036   29.8480   35.2524 C   0  0  0  0  0  0  0  0  0  0  0  0
   28.1995   29.7007   34.0428 C   0  0  0  0  0  0  0  0  0  0  0  0
   28.2914   30.4302   33.2540 H   0  0  0  0  0  0  0  0  0  0  0  0
   27.3840   28.5683   33.8757 C   0  0  0  0  0  0  0  0  0  0  0  0
   26.8349   28.4234   32.9545 H   0  0  0  0  0  0  0  0  0  0  0  0
   27.9074   27.7631   35.9714 C   0  0  0  0  0  0  0  0  0  0  0  0
   27.7706   26.9888   36.7155 H   0  0  0  0  0  0  0  0  0  0  0  0
   28.7300   28.8608   36.2429 C   0  0  0  0  0  0  0  0  0  0  0  0
   29.1950   28.9056   37.2110 H   0  0  0  0  0  0  0  0  0  0  0  0
  1  2  1  0
  1  3  1  0
  1 12  1  0
  4  5  1  0
  4  9  2  0
  4 16  1  0
  6  7  1  0
  6 18  1  0
  6 19  1  0
  8 18  2  0
  9 10  1  0
  9 12  1  0
 11 22  2  0
 11 24  1  0
 12 13  2  0
 13 14  1  0
 13 18  1  0
 14 15  1  0
 14 16  2  0
 16 17  1  0
 19 20  2  0
 19 26  1  0
 20 21  1  0
 20 22  1  0
 22 23  1  0
 24 25  1  0
 24 26  2  0
 26 27  1  0
M  END
> <intraLJ>
26.081    

> <intraEL>
-8.440    

> <intraDihe>
8.483     

> <interLJ>
0.000     

> <interEJ>
0.000     

> <gridLJ>
-6.082    

> <gridEL>
0.000     

> <totalE>
20.043    

> <LGFE>
-6.082  

> <LE>
-0.358  

> <SMILES>
Nc1cccc(Cl)c1C(=O)Nc1ccncc1

> <atom.dprop.GFE>
-1.1120 0.0000 0.0000 0.0579 0.0000 -0.6230 0.0000 -0.6870 -0.0180 0.0000 -1.7190 0.0032 0.0301 -0.0631 -0.5900 0.0514 0.0000 0.0000 -0.3086 -0.2919 0.0000 -0.2234 0.0000 -0.3453 0.0000 -0.2430 0.0000

> <atom.prop.CLASS>
FORN NCLA NCLA BENC NCLA FORN NCLA FORO BENC NCLA IMIN BENC BENC BENC CLBX BENC NCLA NCLA BENC BENC NCLA GEHC NCLA GEHC NCLA BENC NCLA

> <cluster_id>
1

> <rmsd_to_cluster_rep>
0.00    

> <ligRMSD>
1.46    

> <ligCOMD>
1.13    

$$$$
tyk2_liang_ejmc_10_945
     RDKit          3D

 28 29  0  0  0  0  0  0  0  0999 V2000
   32.3783   32.1115   33.8930 C   0  0  0  0  0  0  0  0  0  0  0  0
   33.2370   32.4868   32.9344 F   0  0  0  0  0  0  0  0  0  0  0  0
   32.6075   30.7995   34.0841 F   0  0  0  0  0  0  0  0  0  0  0  0
   31.1548   32.2117   33.3457 F   0  0  0  0  0  0  0  0  0  0  0  0
   33.3429   34.7629   36.4241 C   0  0  0  0  0  0  0  0  0  0  0  0
   33.9713   35.6405   36.4748 H   0  0  0  0  0  0  0  0  0  0  0  0
   29.7822   31.0551   35.5844 N   0  0  0  0  0  0  0  0  0  0  0  0
   29.5041   31.8185   35.0084 H   0  0  0  0  0  0  0  0  0  0  0  0
   31.3585   30.3040   37.0722 O   0  0  0  0  0  0  0  0  0  0  0  0
   33.2603   34.0281   35.2404 C   0  0  0  0  0  0  0  0  0  0  0  0
   33.8431   34.3618   34.3924 H   0  0  0  0  0  0  0  0  0  0  0  0
   27.3646   27.6615   34.8661 N   0  0  0  0  0  0  0  0  0  0  0  0
   32.4435   32.8789   35.1586 C   0  0  0  0  0  0  0  0  0  0  0  0
   31.6806   32.4790   36.2994 C   0  0  0  0  0  0  0  0  0  0  0  0
   31.8018   33.2228   37.4896 C   0  0  0  0  0  0  0  0  0  0  0  0
   30.9045   32.7909   38.9175 Cl  0  0  0  0  0  0  0  0  0  0  0  0
   32.6135   34.3605   37.5433 C   0  0  0  0  0  0  0  0  0  0  0  0
   32.6799   34.9273   38.4605 H   0  0  0  0  0  0  0  0  0  0  0  0
   30.9049   31.1885   36.3507 C   0  0  0  0  0  0  0  0  0  0  0  0
   28.9827   29.8814   35.3923 C   0  0  0  0  0  0  0  0  0  0  0  0
   28.1912   29.8207   34.2287 C   0  0  0  0  0  0  0  0  0  0  0  0
   28.1965   30.6271   33.5129 H   0  0  0  0  0  0  0  0  0  0  0  0
   27.3949   28.6820   34.0119 C   0  0  0  0  0  0  0  0  0  0  0  0
   26.7790   28.6098   33.1248 H   0  0  0  0  0  0  0  0  0  0  0  0
   28.1016   27.7025   35.9721 C   0  0  0  0  0  0  0  0  0  0  0  0
   28.0443   26.8567   36.6453 H   0  0  0  0  0  0  0  0  0  0  0  0
   28.9223   28.7961   36.2867 C   0  0  0  0  0  0  0  0  0  0  0  0
   29.4713   28.7736   37.2115 H   0  0  0  0  0  0  0  0  0  0  0  0
  1  2  1  0
  1  3  1  0
  1  4  1  0
  1 13  1  0
  5  6  1  0
  5 10  2  0
  5 17  1  0
  7  8  1  0
  7 19  1  0
  7 20  1  0
  9 19  2  0
 10 11  1  0
 10 13  1  0
 12 23  2  0
 12 25  1  0
 13 14  2  0
 14 15  1  0
 14 19  1  0
 15 16  1  0
 15 17  2  0
 17 18  1  0
 20 21  2  0
 20 27  1  0
 21 22  1  0
 21 23  1  0
 23 24  1  0
 25 26  1  0
 25 27  2  0
 27 28  1  0
M  END
> <intraLJ>
27.208    

> <intraEL>
-4.368    

> <intraDihe>
10.209    

> <interLJ>
0.000     

> <interEJ>
0.000     

> <gridLJ>
-5.989    

> <gridEL>
0.000     

> <totalE>
27.061    

> <LGFE>
-5.989  

> <LE>
-0.299  

> <SMILES>
O=C(Nc1ccncc1)c1c(Cl)cccc1C(F)(F)F

> <atom.dprop.GFE>
-1.1230 0.0000 0.0000 0.0000 0.0579 0.0000 -0.6230 0.0000 -0.6870 0.0620 0.0000 -1.7190 -0.0180 0.0301 -0.0631 -0.5900 0.0514 0.0000 0.0000 -0.3086 -0.2248 0.0000 -0.2458 0.0000 -0.3453 0.0000 -0.2430 0.0000

> <atom.prop.CLASS>
TFEC NCLA NCLA NCLA BENC NCLA FORN NCLA FORO BENC NCLA IMIN BENC BENC BENC CLBX BENC NCLA NCLA BENC BENC NCLA GEHC NCLA GEHC NCLA BENC NCLA

> <cluster_id>
1

> <rmsd_to_cluster_rep>
0.00    

> <ligRMSD>
1.52    

> <ligCOMD>
1.03    

$$$$
tyk2_liang_ejmc_11_415
     RDKit          3D

 25 26  0  0  0  0  0  0  0  0999 V2000
   33.3975   33.6532   38.3387 C   0  0  0  0  0  0  0  0  0  0  0  0
   34.1598   34.2352   38.8352 H   0  0  0  0  0  0  0  0  0  0  0  0
   30.3658   30.0621   36.2703 N   0  0  0  0  0  0  0  0  0  0  0  0
   31.1536   29.5671   36.6256 H   0  0  0  0  0  0  0  0  0  0  0  0
   29.3863   32.1185   35.9942 O   0  0  0  0  0  0  0  0  0  0  0  0
   32.8745   32.5101   38.9543 C   0  0  0  0  0  0  0  0  0  0  0  0
   33.2292   32.2157   39.9311 H   0  0  0  0  0  0  0  0  0  0  0  0
   27.3568   27.5037   34.8030 N   0  0  0  0  0  0  0  0  0  0  0  0
   31.8908   31.7490   38.3071 C   0  0  0  0  0  0  0  0  0  0  0  0
   31.4859   30.8770   38.8012 H   0  0  0  0  0  0  0  0  0  0  0  0
   31.4371   32.1279   37.0329 C   0  0  0  0  0  0  0  0  0  0  0  0
   31.9355   33.2988   36.4320 C   0  0  0  0  0  0  0  0  0  0  0  0
   31.3784   33.7928   34.8549 Cl  0  0  0  0  0  0  0  0  0  0  0  0
   32.9295   34.0471   37.0811 C   0  0  0  0  0  0  0  0  0  0  0  0
   33.5989   35.4697   36.3373 Cl  0  0  0  0  0  0  0  0  0  0  0  0
   30.3097   31.4154   36.3934 C   0  0  0  0  0  0  0  0  0  0  0  0
   29.3508   29.2242   35.7128 C   0  0  0  0  0  0  0  0  0  0  0  0
   29.2979   27.8886   36.1525 C   0  0  0  0  0  0  0  0  0  0  0  0
   30.0165   27.5078   36.8606 H   0  0  0  0  0  0  0  0  0  0  0  0
   28.2717   27.0625   35.6637 C   0  0  0  0  0  0  0  0  0  0  0  0
   28.1996   26.0323   35.9867 H   0  0  0  0  0  0  0  0  0  0  0  0
   27.3917   28.7580   34.3697 C   0  0  0  0  0  0  0  0  0  0  0  0
   26.6327   29.0721   33.6645 H   0  0  0  0  0  0  0  0  0  0  0  0
   28.3805   29.6536   34.7841 C   0  0  0  0  0  0  0  0  0  0  0  0
   28.3570   30.6409   34.3605 H   0  0  0  0  0  0  0  0  0  0  0  0
  1  2  1  0
  1  6  2  0
  1 14  1  0
  3  4  1  0
  3 16  1  0
  3 17  1  0
  5 16  2  0
  6  7  1  0
  6  9  1  0
  8 20  2  0
  8 22  1  0
  9 10  1  0
  9 11  2  0
 11 12  1  0
 11 16  1  0
 12 13  1  0
 12 14  2  0
 14 15  1  0
 17 18  2  0
 17 24  1  0
 18 19  1  0
 18 20  1  0
 20 21  1  0
 22 23  1  0
 22 24  2  0
 24 25  1  0
M  END
> <intraLJ>
24.803    

> <intraEL>
-4.298    

> <intraDihe>
6.471     

> <interLJ>
0.000     

> <interEJ>
0.000     

> <gridLJ>
-6.279    

> <gridEL>
0.000     

> <totalE>
20.697    

> <LGFE>
-6.279  

> <LE>
-0.369  

> <SMILES>
O=C(Nc1ccncc1)c1cccc(Cl)c1Cl

> <atom.dprop.GFE>
0.0150 0.0000 -0.5880 0.0000 -0.4410 -0.0234 0.0000 -1.7190 -0.0018 0.0000 -0.0304 0.0065 -0.8780 0.0514 -1.2330 0.0000 -0.2806 -0.2735 0.0000 -0.3453 0.0000 -0.2458 0.0000 -0.2919 0.0000

> <atom.prop.CLASS>
BENC NCLA FORN NCLA FORO BENC NCLA IMIN BENC NCLA BENC BENC CLBX BENC CLBX NCLA BENC BENC NCLA GEHC NCLA GEHC NCLA BENC NCLA

> <cluster_id>
1

> <rmsd_to_cluster_rep>
0.00    

> <ligRMSD>
2.66    

> <ligCOMD>
1.56    

$$$$
tyk2_liang_ejmc_12_191
     RDKit          3D

 27 28  0  0  0  0  0  0  0  0999 V2000
   33.1936   34.6699   35.8422 C   0  0  0  0  0  0  0  0  0  0  0  0
   33.8805   35.5021   35.7753 H   0  0  0  0  0  0  0  0  0  0  0  0
   29.7727   30.9195   35.0650 N   0  0  0  0  0  0  0  0  0  0  0  0
   29.7891   31.4410   34.2167 H   0  0  0  0  0  0  0  0  0  0  0  0
   30.6166   30.7326   37.1905 O   0  0  0  0  0  0  0  0  0  0  0  0
   33.1720   33.7175   34.8161 C   0  0  0  0  0  0  0  0  0  0  0  0
   33.8443   33.8167   33.9763 H   0  0  0  0  0  0  0  0  0  0  0  0
   27.2678   27.5439   34.7585 N   0  0  0  0  0  0  0  0  0  0  0  0
   32.2842   32.6358   34.8762 C   0  0  0  0  0  0  0  0  0  0  0  0
   32.2910   31.9009   34.0833 H   0  0  0  0  0  0  0  0  0  0  0  0
   31.4051   32.5113   35.9638 C   0  0  0  0  0  0  0  0  0  0  0  0
   31.4511   33.4500   37.0140 C   0  0  0  0  0  0  0  0  0  0  0  0
   30.3843   33.2929   38.3887 Cl  0  0  0  0  0  0  0  0  0  0  0  0
   32.3357   34.5440   36.9437 C   0  0  0  0  0  0  0  0  0  0  0  0
   32.3744   35.5024   37.9567 N   0  0  0  0  0  0  0  0  0  0  0  0
   31.9381   35.1729   38.7944 H   0  0  0  0  0  0  0  0  0  0  0  0
   33.2565   35.9704   37.9971 H   0  0  0  0  0  0  0  0  0  0  0  0
   30.5584   31.3055   36.1065 C   0  0  0  0  0  0  0  0  0  0  0  0
   28.9257   29.7682   35.0280 C   0  0  0  0  0  0  0  0  0  0  0  0
   27.8967   29.7501   34.0684 C   0  0  0  0  0  0  0  0  0  0  0  0
   27.7380   30.5876   33.4081 H   0  0  0  0  0  0  0  0  0  0  0  0
   27.0894   28.6039   33.9731 C   0  0  0  0  0  0  0  0  0  0  0  0
   26.2937   28.5562   33.2412 H   0  0  0  0  0  0  0  0  0  0  0  0
   28.2275   27.5426   35.6758 C   0  0  0  0  0  0  0  0  0  0  0  0
   28.3322   26.6632   36.2984 H   0  0  0  0  0  0  0  0  0  0  0  0
   29.0733   28.6395   35.8603 C   0  0  0  0  0  0  0  0  0  0  0  0
   29.8032   28.5709   36.6460 H   0  0  0  0  0  0  0  0  0  0  0  0
  1  2  1  0
  1  6  2  0
  1 14  1  0
  3  4  1  0
  3 18  1  0
  3 19  1  0
  5 18  2  0
  6  7  1  0
  6  9  1  0
  8 22  2  0
  8 24  1  0
  9 10  1  0
  9 11  2  0
 11 12  1  0
 11 18  1  0
 12 13  1  0
 12 14  2  0
 14 15  1  0
 15 16  1  0
 15 17  1  0
 19 20  2  0
 19 26  1  0
 20 21  1  0
 20 22  1  0
 22 23  1  0
 24 25  1  0
 24 26  2  0
 26 27  1  0
M  END
> <intraLJ>
25.921    

> <intraEL>
-4.003    

> <intraDihe>
7.516     

> <interLJ>
0.000     

> <interEJ>
0.000     

> <gridLJ>
-5.590    

> <gridEL>
0.000     

> <totalE>
23.844    

> <LGFE>
-5.590  

> <LE>
-0.329  

> <SMILES>
Nc1cccc(C(=O)Nc2ccncc2)c1Cl

> <atom.dprop.GFE>
0.0620 0.0000 -0.6230 0.0000 -0.6870 -0.0259 0.0000 -1.7190 -0.0922 0.0000 -0.0381 -0.0631 -0.5900 0.0307 -0.4130 0.0000 0.0000 0.0000 -0.3086 -0.2919 0.0000 -0.2234 0.0000 -0.3453 0.0000 -0.2622 0.0000

> <atom.prop.CLASS>
BENC NCLA FORN NCLA FORO BENC NCLA IMIN BENC NCLA BENC BENC CLBX BENC FORN NCLA NCLA NCLA BENC BENC NCLA GEHC NCLA GEHC NCLA BENC NCLA

> <cluster_id>
1

> <rmsd_to_cluster_rep>
0.00    

> <ligRMSD>
1.60    

> <ligCOMD>
1.13    

$$$$
tyk2_liang_ejmc_13_1212
     RDKit          3D

 29 30  0  0  0  0  0  0  0  0999 V2000
   28.4351   29.8389   34.0211 C   0  0  0  0  0  0  0  0  0  0  0  0
   27.7663   29.2978   33.3706 H   0  0  0  0  0  0  0  0  0  0  0  0
   30.7507   32.2545   37.9285 N   0  0  0  0  0  0  0  0  0  0  0  0
   29.8090   32.1198   38.2235 H   0  0  0  0  0  0  0  0  0  0  0  0
   32.2646   31.9458   36.2316 O   0  0  0  0  0  0  0  0  0  0  0  0
   28.5214   29.4368   35.3635 C   0  0  0  0  0  0  0  0  0  0  0  0
   27.9333   28.6003   35.7122 H   0  0  0  0  0  0  0  0  0  0  0  0
   33.0781   33.9921   40.9854 N   0  0  0  0  0  0  0  0  0  0  0  0
   29.3664   30.1112   36.2544 C   0  0  0  0  0  0  0  0  0  0  0  0
   29.4312   29.7765   37.2805 H   0  0  0  0  0  0  0  0  0  0  0  0
   30.1267   31.2016   35.8061 C   0  0  0  0  0  0  0  0  0  0  0  0
   30.0685   31.5833   34.4534 C   0  0  0  0  0  0  0  0  0  0  0  0
   31.0146   32.9320   33.8716 Cl  0  0  0  0  0  0  0  0  0  0  0  0
   29.2133   30.9222   33.5555 C   0  0  0  0  0  0  0  0  0  0  0  0
   29.1779   31.3890   32.2188 O   0  0  0  0  0  0  0  0  0  0  0  0
   28.3212   30.7460   31.2828 C   0  0  0  0  0  0  0  0  0  0  0  0
   28.4512   31.2353   30.2932 H   0  0  0  0  0  0  0  0  0  0  0  0
   27.2571   30.8490   31.5870 H   0  0  0  0  0  0  0  0  0  0  0  0
   28.5858   29.6714   31.1788 H   0  0  0  0  0  0  0  0  0  0  0  0
   31.1324   31.8319   36.6929 C   0  0  0  0  0  0  0  0  0  0  0  0
   31.5900   32.8558   38.9177 C   0  0  0  0  0  0  0  0  0  0  0  0
   30.9627   33.6119   39.9250 C   0  0  0  0  0  0  0  0  0  0  0  0
   29.8938   33.7534   39.9289 H   0  0  0  0  0  0  0  0  0  0  0  0
   31.7584   34.1625   40.9441 C   0  0  0  0  0  0  0  0  0  0  0  0
   31.3039   34.7419   41.7371 H   0  0  0  0  0  0  0  0  0  0  0  0
   33.6912   33.2925   40.0375 C   0  0  0  0  0  0  0  0  0  0  0  0
   34.7665   33.1864   40.1031 H   0  0  0  0  0  0  0  0  0  0  0  0
   32.9919   32.7174   38.9716 C   0  0  0  0  0  0  0  0  0  0  0  0
   33.5642   32.1909   38.2296 H   0  0  0  0  0  0  0  0  0  0  0  0
  1  2  1  0
  1  6  2  0
  1 14  1  0
  3  4  1  0
  3 20  1  0
  3 21  1  0
  5 20  2  0
  6  7  1  0
  6  9  1  0
  8 24  2  0
  8 26  1  0
  9 10  1  0
  9 11  2  0
 11 12  1  0
 11 20  1  0
 12 13  1  0
 12 14  2  0
 14 15  1  0
 15 16  1  0
 16 17  1  0
 16 18  1  0
 16 19  1  0
 21 22  2  0
 21 28  1  0
 22 23  1  0
 22 24  1  0
 24 25  1  0
 26 27  1  0
 26 28  2  0
 28 29  1  0
M  END
> <intraLJ>
26.008    

> <intraEL>
-2.899    

> <intraDihe>
6.268     

> <interLJ>
0.000     

> <interEJ>
0.000     

> <gridLJ>
-5.783    

> <gridEL>
0.000     

> <totalE>
23.594    

> <LGFE>
-5.783  

> <LE>
-0.321  

> <SMILES>
COc1cccc(C(=O)Nc2ccncc2)c1Cl

> <atom.dprop.GFE>
-0.2911 0.0000 -0.9080 0.0000 -0.1780 -0.2806 0.0000 -0.5190 -0.2133 0.0000 -0.1795 -0.1839 -1.5660 -0.2099 -1.3620 -0.3044 0.0000 0.0000 0.0000 0.0000 -0.0296 0.1882 0.0000 0.2621 0.0000 0.0157 0.0000 -0.0234 0.0000

> <atom.prop.CLASS>
BENC NCLA FORN NCLA FORO BENC NCLA IMIN BENC NCLA BENC BENC CLBX BENC DMEO PRPC NCLA NCLA NCLA NCLA BENC BENC NCLA GEHC NCLA GEHC NCLA BENC NCLA

> <cluster_id>
1

> <rmsd_to_cluster_rep>
0.00    

> <ligRMSD>
6.94    

> <ligCOMD>
1.44    

$$$$
tyk2_liang_ejmc_14_302
     RDKit          3D

 25 26  0  0  0  0  0  0  0  0999 V2000
   33.7607   34.2060   36.5380 C   0  0  0  0  0  0  0  0  0  0  0  0
   34.5342   34.9559   36.4648 H   0  0  0  0  0  0  0  0  0  0  0  0
   30.1543   30.8147   35.5748 N   0  0  0  0  0  0  0  0  0  0  0  0
   30.4240   31.2654   34.7287 H   0  0  0  0  0  0  0  0  0  0  0  0
   30.4747   30.6956   37.8433 O   0  0  0  0  0  0  0  0  0  0  0  0
   32.5362   34.3975   35.8873 C   0  0  0  0  0  0  0  0  0  0  0  0
   32.2723   35.8419   34.9612 Cl  0  0  0  0  0  0  0  0  0  0  0  0
   27.3670   27.7340   34.8671 N   0  0  0  0  0  0  0  0  0  0  0  0
   31.5244   33.4318   35.9818 C   0  0  0  0  0  0  0  0  0  0  0  0
   30.5895   33.5842   35.4631 H   0  0  0  0  0  0  0  0  0  0  0  0
   31.7348   32.2730   36.7450 C   0  0  0  0  0  0  0  0  0  0  0  0
   32.9805   32.0658   37.3661 C   0  0  0  0  0  0  0  0  0  0  0  0
   33.2949   30.6384   38.3099 Cl  0  0  0  0  0  0  0  0  0  0  0  0
   33.9815   33.0388   37.2759 C   0  0  0  0  0  0  0  0  0  0  0  0
   34.9273   32.8838   37.7734 H   0  0  0  0  0  0  0  0  0  0  0  0
   30.7323   31.1868   36.7485 C   0  0  0  0  0  0  0  0  0  0  0  0
   29.1969   29.7671   35.4009 C   0  0  0  0  0  0  0  0  0  0  0  0
   28.3869   29.8120   34.2511 C   0  0  0  0  0  0  0  0  0  0  0  0
   28.4677   30.6237   33.5460 H   0  0  0  0  0  0  0  0  0  0  0  0
   27.4808   28.7614   34.0282 C   0  0  0  0  0  0  0  0  0  0  0  0
   26.8481   28.7632   33.1502 H   0  0  0  0  0  0  0  0  0  0  0  0
   28.1159   27.6748   35.9616 C   0  0  0  0  0  0  0  0  0  0  0  0
   27.9851   26.8254   36.6200 H   0  0  0  0  0  0  0  0  0  0  0  0
   29.0356   28.6770   36.2809 C   0  0  0  0  0  0  0  0  0  0  0  0
   29.5788   28.5696   37.2018 H   0  0  0  0  0  0  0  0  0  0  0  0
  1  2  1  0
  1  6  2  0
  1 14  1  0
  3  4  1  0
  3 16  1  0
  3 17  1  0
  5 16  2  0
  6  7  1  0
  6  9  1  0
  8 20  2  0
  8 22  1  0
  9 10  1  0
  9 11  2  0
 11 12  1  0
 11 16  1  0
 12 13  1  0
 12 14  2  0
 14 15  1  0
 17 18  2  0
 17 24  1  0
 18 19  1  0
 18 20  1  0
 20 21  1  0
 22 23  1  0
 22 24  2  0
 24 25  1  0
M  END
> <intraLJ>
23.841    

> <intraEL>
-5.342    

> <intraDihe>
6.094     

> <interLJ>
0.000     

> <interEJ>
0.000     

> <gridLJ>
-6.608    

> <gridEL>
0.000     

> <totalE>
17.986    

> <LGFE>
-6.608  

> <LE>
-0.389  

> <SMILES>
O=C(Nc1ccncc1)c1cc(Cl)ccc1Cl

> <atom.dprop.GFE>
0.1655 0.0000 -0.6230 0.0000 -0.6870 0.0620 -1.8670 -1.7190 0.0065 0.0000 0.0301 -0.0377 -0.5140 0.0401 0.0000 0.0000 -0.3086 -0.2911 0.0000 -0.2458 0.0000 -0.3453 0.0000 -0.2735 0.0000

> <atom.prop.CLASS>
BENC NCLA FORN NCLA FORO BENC CLBX IMIN BENC NCLA BENC BENC CLBX BENC NCLA NCLA BENC BENC NCLA GEHC NCLA GEHC NCLA BENC NCLA

> <cluster_id>
1

> <rmsd_to_cluster_rep>
0.00    

> <ligRMSD>
2.02    

> <ligCOMD>
1.09    

$$$$
tyk2_liang_ejmc_15_63
     RDKit          3D

 28 29  0  0  0  0  0  0  0  0999 V2000
   33.3822   34.6085   36.3522 C   0  0  0  0  0  0  0  0  0  0  0  0
   34.0798   35.4351   36.3509 H   0  0  0  0  0  0  0  0  0  0  0  0
   30.1748   30.8002   35.1568 N   0  0  0  0  0  0  0  0  0  0  0  0
   30.6682   31.0126   34.3180 H   0  0  0  0  0  0  0  0  0  0  0  0
   29.9512   31.2631   37.3934 O   0  0  0  0  0  0  0  0  0  0  0  0
   33.4017   33.6410   37.3778 C   0  0  0  0  0  0  0  0  0  0  0  0
   34.3654   33.7523   38.4930 C   0  0  0  0  0  0  0  0  0  0  0  0
   34.6228   32.5757   39.0960 F   0  0  0  0  0  0  0  0  0  0  0  0
   33.9437   34.5720   39.4746 F   0  0  0  0  0  0  0  0  0  0  0  0
   35.5549   34.2331   38.0896 F   0  0  0  0  0  0  0  0  0  0  0  0
   27.3821   27.7009   34.5573 N   0  0  0  0  0  0  0  0  0  0  0  0
   32.4659   32.5839   37.3413 C   0  0  0  0  0  0  0  0  0  0  0  0
   32.4462   31.8449   38.1321 H   0  0  0  0  0  0  0  0  0  0  0  0
   31.5520   32.4831   36.2829 C   0  0  0  0  0  0  0  0  0  0  0  0
   31.5278   33.4732   35.2864 C   0  0  0  0  0  0  0  0  0  0  0  0
   30.3993   33.4004   33.9635 Cl  0  0  0  0  0  0  0  0  0  0  0  0
   32.4516   34.5196   35.3149 C   0  0  0  0  0  0  0  0  0  0  0  0
   32.4403   35.2668   34.5351 H   0  0  0  0  0  0  0  0  0  0  0  0
   30.4917   31.4524   36.3080 C   0  0  0  0  0  0  0  0  0  0  0  0
   29.2036   29.7608   35.0152 C   0  0  0  0  0  0  0  0  0  0  0  0
   28.6372   29.5713   33.7411 C   0  0  0  0  0  0  0  0  0  0  0  0
   28.9069   30.2070   32.9130 H   0  0  0  0  0  0  0  0  0  0  0  0
   27.7245   28.5177   33.5634 C   0  0  0  0  0  0  0  0  0  0  0  0
   27.2765   28.3416   32.5941 H   0  0  0  0  0  0  0  0  0  0  0  0
   27.8979   27.8670   35.7694 C   0  0  0  0  0  0  0  0  0  0  0  0
   27.5857   27.1855   36.5504 H   0  0  0  0  0  0  0  0  0  0  0  0
   28.8019   28.8945   36.0526 C   0  0  0  0  0  0  0  0  0  0  0  0
   29.1479   28.9800   37.0664 H   0  0  0  0  0  0  0  0  0  0  0  0
  1  2  1  0
  1  6  2  0
  1 17  1  0
  3  4  1  0
  3 19  1  0
  3 20  1  0
  5 19  2  0
  6  7  1  0
  6 12  1  0
  7  8  1  0
  7  9  1  0
  7 10  1  0
 11 23  2  0
 11 25  1  0
 12 13  1  0
 12 14  2  0
 14 15  1  0
 14 19  1  0
 15 16  1  0
 15 17  2  0
 17 18  1  0
 20 21  2  0
 20 27  1  0
 21 22  1  0
 21 23  1  0
 23 24  1  0
 25 26  1  0
 25 27  2  0
 27 28  1  0
M  END
> <intraLJ>
28.038    

> <intraEL>
-5.810    

> <intraDihe>
7.799     

> <interLJ>
0.000     

> <interEJ>
0.000     

> <gridLJ>
-5.816    

> <gridEL>
0.000     

> <totalE>
24.210    

> <LGFE>
-5.816  

> <LE>
-0.291  

> <SMILES>
O=C(Nc1ccncc1)c1cc(C(F)(F)F)ccc1Cl

> <atom.dprop.GFE>
0.0579 0.0000 -0.6230 0.0000 -0.4590 0.0401 -0.5910 0.0000 0.0000 0.0000 -1.7190 -0.0377 0.0000 0.0301 0.0132 -1.5660 0.0620 0.0000 0.0000 -0.2806 -0.1393 0.0000 -0.1935 0.0000 -0.1675 0.0000 -0.2430 0.0000

> <atom.prop.CLASS>
BENC NCLA FORN NCLA FORO BENC TFEC NCLA NCLA NCLA IMIN BENC NCLA BENC BENC CLBX BENC NCLA NCLA BENC BENC NCLA GEHC NCLA GEHC NCLA BENC NCLA

> <cluster_id>
1

> <rmsd_to_cluster_rep>
0.00    

> <ligRMSD>
2.63    

> <ligCOMD>
1.07    

$$$$
tyk2_liang_ejmc_16_1046
     RDKit          3D

 29 30  0  0  0  0  0  0  0  0999 V2000
   28.5922   30.3674   33.0221 C   0  0  0  0  0  0  0  0  0  0  0  0
   28.1234   29.8047   32.2273 H   0  0  0  0  0  0  0  0  0  0  0  0
   31.3290   31.8547   36.9747 N   0  0  0  0  0  0  0  0  0  0  0  0
   31.3798   30.8642   36.8835 H   0  0  0  0  0  0  0  0  0  0  0  0
   30.4247   33.7892   36.1328 O   0  0  0  0  0  0  0  0  0  0  0  0
   28.4974   29.9070   34.3417 C   0  0  0  0  0  0  0  0  0  0  0  0
   27.7821   28.7093   34.5565 O   0  0  0  0  0  0  0  0  0  0  0  0
   27.6827   28.1961   35.8799 C   0  0  0  0  0  0  0  0  0  0  0  0
   27.1169   27.2400   35.8449 H   0  0  0  0  0  0  0  0  0  0  0  0
   27.1332   28.9032   36.5382 H   0  0  0  0  0  0  0  0  0  0  0  0
   28.6913   27.9900   36.2997 H   0  0  0  0  0  0  0  0  0  0  0  0
   33.9240   33.3446   39.9444 N   0  0  0  0  0  0  0  0  0  0  0  0
   29.1080   30.6549   35.3771 C   0  0  0  0  0  0  0  0  0  0  0  0
   29.0648   30.3270   36.4043 H   0  0  0  0  0  0  0  0  0  0  0  0
   29.7923   31.8489   35.0692 C   0  0  0  0  0  0  0  0  0  0  0  0
   29.9089   32.2679   33.7300 C   0  0  0  0  0  0  0  0  0  0  0  0
   30.7571   33.7270   33.2941 Cl  0  0  0  0  0  0  0  0  0  0  0  0
   29.2935   31.5341   32.7148 C   0  0  0  0  0  0  0  0  0  0  0  0
   29.3649   31.8684   31.6900 H   0  0  0  0  0  0  0  0  0  0  0  0
   30.5560   32.5687   36.1126 C   0  0  0  0  0  0  0  0  0  0  0  0
   32.1542   32.3868   38.0136 C   0  0  0  0  0  0  0  0  0  0  0  0
   33.2734   31.6283   38.4036 C   0  0  0  0  0  0  0  0  0  0  0  0
   33.4796   30.6705   37.9534 H   0  0  0  0  0  0  0  0  0  0  0  0
   34.1340   32.1570   39.3806 C   0  0  0  0  0  0  0  0  0  0  0  0
   35.0072   31.6011   39.6960 H   0  0  0  0  0  0  0  0  0  0  0  0
   32.8674   34.0711   39.5990 C   0  0  0  0  0  0  0  0  0  0  0  0
   32.7286   35.0265   40.0887 H   0  0  0  0  0  0  0  0  0  0  0  0
   31.9426   33.6275   38.6487 C   0  0  0  0  0  0  0  0  0  0  0  0
   31.0983   34.2609   38.4462 H   0  0  0  0  0  0  0  0  0  0  0  0
  1  2  1  0
  1  6  2  0
  1 18  1  0
  3  4  1  0
  3 20  1  0
  3 21  1  0
  5 20  2  0
  6  7  1  0
  6 13  1  0
  7  8  1  0
  8  9  1  0
  8 10  1  0
  8 11  1  0
 12 24  2  0
 12 26  1  0
 13 14  1  0
 13 15  2  0
 15 16  1  0
 15 20  1  0
 16 17  1  0
 16 18  2  0
 18 19  1  0
 21 22  2  0
 21 28  1  0
 22 23  1  0
 22 24  1  0
 24 25  1  0
 26 27  1  0
 26 28  2  0
 28 29  1  0
M  END
> <intraLJ>
25.195    

> <intraEL>
-4.391    

> <intraDihe>
6.358     

> <interLJ>
0.000     

> <interEJ>
0.000     

> <gridLJ>
-7.556    

> <gridEL>
0.000     

> <totalE>
19.606    

> <LGFE>
-7.556  

> <LE>
-0.420  

> <SMILES>
COc1ccc(Cl)c(C(=O)Nc2ccncc2)c1

> <atom.dprop.GFE>
-0.2084 0.0000 -0.9080 0.0000 -0.8820 -0.2911 -2.1850 -0.6161 0.0000 0.0000 0.0000 -0.2710 -0.3086 0.0000 -0.0872 -0.1182 -1.5660 -0.1373 0.0000 0.0000 0.0170 -0.0251 0.0000 -0.0356 0.0000 0.0956 0.0000 -0.0296 0.0000

> <atom.prop.CLASS>
BENC NCLA FORN NCLA FORO BENC DMEO PRPC NCLA NCLA NCLA IMIN BENC NCLA BENC BENC CLBX BENC NCLA NCLA BENC BENC NCLA GEHC NCLA GEHC NCLA BENC NCLA

> <cluster_id>
1

> <rmsd_to_cluster_rep>
0.00    

> <ligRMSD>
6.75    

> <ligCOMD>
1.69    

$$$$
tyk2_liang_ejmc_17_105
     RDKit          3D

 25 26  0  0  0  0  0  0  0  0999 V2000
   33.2961   34.6491   35.9895 C   0  0  0  0  0  0  0  0  0  0  0  0
   34.3877   35.9993   35.9329 Cl  0  0  0  0  0  0  0  0  0  0  0  0
   29.8776   30.9183   35.1324 N   0  0  0  0  0  0  0  0  0  0  0  0
   29.9072   31.4464   34.2885 H   0  0  0  0  0  0  0  0  0  0  0  0
   30.6914   30.7097   37.2674 O   0  0  0  0  0  0  0  0  0  0  0  0
   33.2652   33.7275   34.9360 C   0  0  0  0  0  0  0  0  0  0  0  0
   33.9298   33.8515   34.0942 H   0  0  0  0  0  0  0  0  0  0  0  0
   27.3784   27.5461   34.7643 N   0  0  0  0  0  0  0  0  0  0  0  0
   32.3741   32.6456   34.9739 C   0  0  0  0  0  0  0  0  0  0  0  0
   32.3711   31.9340   34.1605 H   0  0  0  0  0  0  0  0  0  0  0  0
   31.5032   32.4941   36.0664 C   0  0  0  0  0  0  0  0  0  0  0  0
   31.5676   33.4021   37.1402 C   0  0  0  0  0  0  0  0  0  0  0  0
   30.5198   33.2480   38.5217 Cl  0  0  0  0  0  0  0  0  0  0  0  0
   32.4501   34.4854   37.0901 C   0  0  0  0  0  0  0  0  0  0  0  0
   32.4807   35.1937   37.9047 H   0  0  0  0  0  0  0  0  0  0  0  0
   30.6499   31.2921   36.1879 C   0  0  0  0  0  0  0  0  0  0  0  0
   29.0306   29.7683   35.0738 C   0  0  0  0  0  0  0  0  0  0  0  0
   28.0282   29.7495   34.0864 C   0  0  0  0  0  0  0  0  0  0  0  0
   27.8884   30.5860   33.4206 H   0  0  0  0  0  0  0  0  0  0  0  0
   27.2222   28.6042   33.9715 C   0  0  0  0  0  0  0  0  0  0  0  0
   26.4463   28.5557   33.2188 H   0  0  0  0  0  0  0  0  0  0  0  0
   28.3134   27.5445   35.7066 C   0  0  0  0  0  0  0  0  0  0  0  0
   28.4002   26.6661   36.3333 H   0  0  0  0  0  0  0  0  0  0  0  0
   29.1552   28.6404   35.9110 C   0  0  0  0  0  0  0  0  0  0  0  0
   29.8630   28.5715   36.7166 H   0  0  0  0  0  0  0  0  0  0  0  0
  1  2  1  0
  1  6  2  0
  1 14  1  0
  3  4  1  0
  3 16  1  0
  3 17  1  0
  5 16  2  0
  6  7  1  0
  6  9  1  0
  8 20  2  0
  8 22  1  0
  9 10  1  0
  9 11  2  0
 11 12  1  0
 11 16  1  0
 12 13  1  0
 12 14  2  0
 14 15  1  0
 17 18  2  0
 17 24  1  0
 18 19  1  0
 18 20  1  0
 20 21  1  0
 22 23  1  0
 22 24  2  0
 24 25  1  0
M  END
> <intraLJ>
24.728    

> <intraEL>
-5.475    

> <intraDihe>
5.804     

> <interLJ>
0.000     

> <interEJ>
0.000     

> <gridLJ>
-6.424    

> <gridEL>
0.000     

> <totalE>
18.632    

> <LGFE>
-6.424  

> <LE>
-0.378  

> <SMILES>
O=C(Nc1ccncc1)c1ccc(Cl)cc1Cl

> <atom.dprop.GFE>
0.0579 -1.3320 -0.6230 0.0000 -0.6870 -0.0259 0.0000 -1.7190 -0.0922 0.0000 0.0301 -0.0631 -0.5900 0.0514 0.0000 0.0000 -0.3086 -0.2919 0.0000 -0.2234 0.0000 -0.3453 0.0000 -0.2622 0.0000

> <atom.prop.CLASS>
BENC CLBX FORN NCLA FORO BENC NCLA IMIN BENC NCLA BENC BENC CLBX BENC NCLA NCLA BENC BENC NCLA GEHC NCLA GEHC NCLA BENC NCLA

> <cluster_id>
1

> <rmsd_to_cluster_rep>
0.00    

> <ligRMSD>
1.58    

> <ligCOMD>
1.11    

$$$$
tyk2_liang_ejmc_18_1145
     RDKit          3D

 28 29  0  0  0  0  0  0  0  0999 V2000
   32.9321   34.5722   37.5924 C   0  0  0  0  0  0  0  0  0  0  0  0
   33.8672   35.5359   38.2063 C   0  0  0  0  0  0  0  0  0  0  0  0
   34.7851   36.0305   37.3540 F   0  0  0  0  0  0  0  0  0  0  0  0
   34.5662   34.9935   39.2209 F   0  0  0  0  0  0  0  0  0  0  0  0
   33.2309   36.6063   38.7178 F   0  0  0  0  0  0  0  0  0  0  0  0
   30.1562   30.5601   35.9782 N   0  0  0  0  0  0  0  0  0  0  0  0
   30.8252   30.1849   36.6135 H   0  0  0  0  0  0  0  0  0  0  0  0
   29.3844   32.4555   34.9398 O   0  0  0  0  0  0  0  0  0  0  0  0
   32.3586   33.5100   38.3220 C   0  0  0  0  0  0  0  0  0  0  0  0
   32.5795   33.3728   39.3714 H   0  0  0  0  0  0  0  0  0  0  0  0
   27.3545   27.6861   34.6935 N   0  0  0  0  0  0  0  0  0  0  0  0
   31.4865   32.6084   37.6994 C   0  0  0  0  0  0  0  0  0  0  0  0
   31.0475   31.8104   38.2820 H   0  0  0  0  0  0  0  0  0  0  0  0
   31.1849   32.7514   36.3368 C   0  0  0  0  0  0  0  0  0  0  0  0
   31.7211   33.8307   35.6136 C   0  0  0  0  0  0  0  0  0  0  0  0
   31.3658   34.0610   33.9247 Cl  0  0  0  0  0  0  0  0  0  0  0  0
   32.6005   34.7199   36.2337 C   0  0  0  0  0  0  0  0  0  0  0  0
   33.0211   35.5303   35.6547 H   0  0  0  0  0  0  0  0  0  0  0  0
   30.1643   31.8917   35.7015 C   0  0  0  0  0  0  0  0  0  0  0  0
   29.2221   29.6002   35.4789 C   0  0  0  0  0  0  0  0  0  0  0  0
   29.0570   28.4121   36.2145 C   0  0  0  0  0  0  0  0  0  0  0  0
   29.6367   28.2243   37.1041 H   0  0  0  0  0  0  0  0  0  0  0  0
   28.1014   27.4799   35.7761 C   0  0  0  0  0  0  0  0  0  0  0  0
   27.9459   26.5594   36.3234 H   0  0  0  0  0  0  0  0  0  0  0  0
   27.4995   28.7964   33.9802 C   0  0  0  0  0  0  0  0  0  0  0  0
   26.8777   28.9196   33.1027 H   0  0  0  0  0  0  0  0  0  0  0  0
   28.4331   29.7777   34.3238 C   0  0  0  0  0  0  0  0  0  0  0  0
   28.5105   30.6315   33.6758 H   0  0  0  0  0  0  0  0  0  0  0  0
  1  2  1  0
  1  9  2  0
  1 17  1  0
  2  3  1  0
  2  4  1  0
  2  5  1  0
  6  7  1  0
  6 19  1  0
  6 20  1  0
  8 19  2  0
  9 10  1  0
  9 12  1  0
 11 23  2  0
 11 25  1  0
 12 13  1  0
 12 14  2  0
 14 15  1  0
 14 19  1  0
 15 16  1  0
 15 17  2  0
 17 18  1  0
 20 21  2  0
 20 27  1  0
 21 22  1  0
 21 23  1  0
 23 24  1  0
 25 26  1  0
 25 27  2  0
 27 28  1  0
M  END
> <intraLJ>
27.996    

> <intraEL>
-3.893    

> <intraDihe>
6.665     

> <interLJ>
0.000     

> <interEJ>
0.000     

> <gridLJ>
-5.654    

> <gridEL>
0.000     

> <totalE>
25.114    

> <LGFE>
-5.654  

> <LE>
-0.283  

> <SMILES>
O=C(Nc1ccncc1)c1ccc(C(F)(F)F)cc1Cl

> <atom.dprop.GFE>
0.0514 -0.3400 0.0000 0.0000 0.0000 -0.5880 0.0000 -0.3830 -0.0296 0.0000 -1.7190 -0.0304 0.0000 -0.0548 0.0610 -1.2680 0.0579 0.0000 0.0000 -0.2806 -0.2735 0.0000 -0.3453 0.0000 -0.2214 0.0000 -0.2911 0.0000

> <atom.prop.CLASS>
BENC TFEC NCLA NCLA NCLA FORN NCLA FORO BENC NCLA IMIN BENC NCLA BENC BENC CLBX BENC NCLA NCLA BENC BENC NCLA GEHC NCLA GEHC NCLA BENC NCLA

> <cluster_id>
1

> <rmsd_to_cluster_rep>
0.00    

> <ligRMSD>
2.43    

> <ligCOMD>
1.14    

$$$$
tyk2_liang_ejmc_19_278
     RDKit          3D

 27 28  0  0  0  0  0  0  0  0999 V2000
   27.6280   30.1923   33.5284 C   0  0  0  0  0  0  0  0  0  0  0  0
   26.5500   29.6882   32.8095 N   0  0  0  0  0  0  0  0  0  0  0  0
   26.6308   29.8722   31.8303 H   0  0  0  0  0  0  0  0  0  0  0  0
   26.2740   28.7835   33.1328 H   0  0  0  0  0  0  0  0  0  0  0  0
   30.9162   32.0900   36.9916 N   0  0  0  0  0  0  0  0  0  0  0  0
   30.0445   32.0191   37.4681 H   0  0  0  0  0  0  0  0  0  0  0  0
   32.0231   31.7684   35.0080 O   0  0  0  0  0  0  0  0  0  0  0  0
   27.9302   29.6907   34.8035 C   0  0  0  0  0  0  0  0  0  0  0  0
   27.3352   28.8985   35.2351 H   0  0  0  0  0  0  0  0  0  0  0  0
   33.9915   33.3732   39.5699 N   0  0  0  0  0  0  0  0  0  0  0  0
   29.0088   30.2130   35.5317 C   0  0  0  0  0  0  0  0  0  0  0  0
   29.2363   29.8054   36.5066 H   0  0  0  0  0  0  0  0  0  0  0  0
   29.7833   31.2512   34.9889 C   0  0  0  0  0  0  0  0  0  0  0  0
   29.5026   31.7258   33.6947 C   0  0  0  0  0  0  0  0  0  0  0  0
   30.4435   33.0012   32.9737 Cl  0  0  0  0  0  0  0  0  0  0  0  0
   28.4181   31.2087   32.9790 C   0  0  0  0  0  0  0  0  0  0  0  0
   28.1949   31.5968   31.9963 H   0  0  0  0  0  0  0  0  0  0  0  0
   30.9997   31.7250   35.6839 C   0  0  0  0  0  0  0  0  0  0  0  0
   31.9994   32.5311   37.8136 C   0  0  0  0  0  0  0  0  0  0  0  0
   31.6877   33.3486   38.9157 C   0  0  0  0  0  0  0  0  0  0  0  0
   30.6722   33.6534   39.1118 H   0  0  0  0  0  0  0  0  0  0  0  0
   32.7293   33.7452   39.7714 C   0  0  0  0  0  0  0  0  0  0  0  0
   32.5223   34.3693   40.6309 H   0  0  0  0  0  0  0  0  0  0  0  0
   34.3093   32.6070   38.5334 C   0  0  0  0  0  0  0  0  0  0  0  0
   35.3490   32.3346   38.4040 H   0  0  0  0  0  0  0  0  0  0  0  0
   33.3490   32.1727   37.6168 C   0  0  0  0  0  0  0  0  0  0  0  0
   33.6946   31.5837   36.7872 H   0  0  0  0  0  0  0  0  0  0  0  0
  1  2  1  0
  1  8  2  0
  1 16  1  0
  2  3  1  0
  2  4  1  0
  5  6  1  0
  5 18  1  0
  5 19  1  0
  7 18  2  0
  8  9  1  0
  8 11  1  0
 10 22  2  0
 10 24  1  0
 11 12  1  0
 11 13  2  0
 13 14  1  0
 13 18  1  0
 14 15  1  0
 14 16  2  0
 16 17  1  0
 19 20  2  0
 19 26  1  0
 20 21  1  0
 20 22  1  0
 22 23  1  0
 24 25  1  0
 24 26  2  0
 26 27  1  0
M  END
> <intraLJ>
24.063    

> <intraEL>
-6.842    

> <intraDihe>
7.898     

> <interLJ>
0.000     

> <interEJ>
0.000     

> <gridLJ>
-5.909    

> <gridEL>
0.000     

> <totalE>
19.210    

> <LGFE>
-5.909  

> <LE>
-0.348  

> <SMILES>
Nc1ccc(C(=O)Nc2ccncc2)c(Cl)c1

> <atom.dprop.GFE>
-0.2254 -1.2950 0.0000 0.0000 -0.9080 0.0000 -0.1780 -0.2919 0.0000 -0.2710 -0.3086 0.0000 -0.1795 -0.1289 -1.7850 -0.2099 0.0000 0.0000 -0.0304 -0.0296 0.0000 0.0330 0.0000 -0.0626 0.0000 -0.0377 0.0000

> <atom.prop.CLASS>
BENC FORN NCLA NCLA FORN NCLA FORO BENC NCLA IMIN BENC NCLA BENC BENC CLBX BENC NCLA NCLA BENC BENC NCLA GEHC NCLA GEHC NCLA BENC NCLA

> <cluster_id>
1

> <rmsd_to_cluster_rep>
0.00    

> <ligRMSD>
6.74    

> <ligCOMD>
1.28    

$$$$
tyk2_liang_ejmc_20_948
     RDKit          3D

 29 30  0  0  0  0  0  0  0  0999 V2000
   28.9246   31.3999   34.1042 C   0  0  0  0  0  0  0  0  0  0  0  0
   28.1581   30.7109   33.1412 O   0  0  0  0  0  0  0  0  0  0  0  0
   27.7421   31.4235   31.9811 C   0  0  0  0  0  0  0  0  0  0  0  0
   27.1603   30.7326   31.3332 H   0  0  0  0  0  0  0  0  0  0  0  0
   28.6203   31.7866   31.4041 H   0  0  0  0  0  0  0  0  0  0  0  0
   27.0875   32.2790   32.2557 H   0  0  0  0  0  0  0  0  0  0  0  0
   31.0585   33.1662   38.4407 N   0  0  0  0  0  0  0  0  0  0  0  0
   30.2532   32.6549   38.7268 H   0  0  0  0  0  0  0  0  0  0  0  0
   32.3070   33.8832   36.6526 O   0  0  0  0  0  0  0  0  0  0  0  0
   29.3253   30.6940   35.2464 C   0  0  0  0  0  0  0  0  0  0  0  0
   29.0522   29.6536   35.3496 H   0  0  0  0  0  0  0  0  0  0  0  0
   33.3762   34.4812   41.7093 N   0  0  0  0  0  0  0  0  0  0  0  0
   30.0728   31.3132   36.2539 C   0  0  0  0  0  0  0  0  0  0  0  0
   30.3797   30.7368   37.1157 H   0  0  0  0  0  0  0  0  0  0  0  0
   30.4249   32.6649   36.1293 C   0  0  0  0  0  0  0  0  0  0  0  0
   30.0621   33.3768   34.9693 C   0  0  0  0  0  0  0  0  0  0  0  0
   30.4932   35.0557   34.7755 Cl  0  0  0  0  0  0  0  0  0  0  0  0
   29.2994   32.7527   33.9695 C   0  0  0  0  0  0  0  0  0  0  0  0
   29.0131   33.3235   33.1005 H   0  0  0  0  0  0  0  0  0  0  0  0
   31.3402   33.2841   37.1146 C   0  0  0  0  0  0  0  0  0  0  0  0
   31.8375   33.6774   39.5253 C   0  0  0  0  0  0  0  0  0  0  0  0
   31.7079   33.0379   40.7720 C   0  0  0  0  0  0  0  0  0  0  0  0
   31.0256   32.2136   40.9051 H   0  0  0  0  0  0  0  0  0  0  0  0
   32.5067   33.4816   41.8397 C   0  0  0  0  0  0  0  0  0  0  0  0
   32.4357   33.0038   42.8081 H   0  0  0  0  0  0  0  0  0  0  0  0
   33.5034   35.1071   40.5448 C   0  0  0  0  0  0  0  0  0  0  0  0
   34.2141   35.9215   40.4839 H   0  0  0  0  0  0  0  0  0  0  0  0
   32.7433   34.7526   39.4251 C   0  0  0  0  0  0  0  0  0  0  0  0
   32.8848   35.3254   38.5266 H   0  0  0  0  0  0  0  0  0  0  0  0
  1  2  1  0
  1 10  2  0
  1 18  1  0
  2  3  1  0
  3  4  1  0
  3  5  1  0
  3  6  1  0
  7  8  1  0
  7 20  1  0
  7 21  1  0
  9 20  2  0
 10 11  1  0
 10 13  1  0
 12 24  2  0
 12 26  1  0
 13 14  1  0
 13 15  2  0
 15 16  1  0
 15 20  1  0
 16 17  1  0
 16 18  2  0
 18 19  1  0
 21 22  2  0
 21 28  1  0
 22 23  1  0
 22 24  1  0
 24 25  1  0
 26 27  1  0
 26 28  2  0
 28 29  1  0
M  END
> <intraLJ>
24.934    

> <intraEL>
-5.798    

> <intraDihe>
6.214     

> <interLJ>
0.000     

> <interEJ>
0.000     

> <gridLJ>
-6.801    

> <gridEL>
0.000     

> <totalE>
18.549    

> <LGFE>
-6.801  

> <LE>
-0.378  

> <SMILES>
COc1ccc(C(=O)Nc2ccncc2)c(Cl)c1

> <atom.dprop.GFE>
-0.2405 -1.8840 -0.4739 0.0000 0.0000 0.0000 -1.2000 0.0000 -0.5500 -0.3086 0.0000 -0.5190 -0.1288 0.0000 -0.0548 0.0705 -1.7690 -0.1005 0.0000 0.0000 0.0848 0.1520 0.0000 -0.0410 0.0000 0.0956 0.0000 0.0661 0.0000

> <atom.prop.CLASS>
BENC DMEO PRPC NCLA NCLA NCLA FORN NCLA FORO BENC NCLA IMIN BENC NCLA BENC BENC CLBX BENC NCLA NCLA BENC BENC NCLA GEHC NCLA GEHC NCLA BENC NCLA

> <cluster_id>
1

> <rmsd_to_cluster_rep>
0.00    

> <ligRMSD>
7.11    

> <ligCOMD>
1.16    

$$$$
tyk2_liang_ejmc_21_1119
     RDKit          3D

 25 26  0  0  0  0  0  0  0  0999 V2000
   27.8024   30.4268   33.7776 C   0  0  0  0  0  0  0  0  0  0  0  0
   26.8155   30.0763   33.5136 H   0  0  0  0  0  0  0  0  0  0  0  0
   31.4890   32.8948   35.8426 C   0  0  0  0  0  0  0  0  0  0  0  0
   32.2240   31.1176   35.2197 H   0  0  0  0  0  0  0  0  0  0  0  0
   28.4933   29.8394   34.8422 C   0  0  0  0  0  0  0  0  0  0  0  0
   28.0411   29.0350   35.4034 H   0  0  0  0  0  0  0  0  0  0  0  0
   33.0146   32.6300   39.8620 N   0  0  0  0  0  0  0  0  0  0  0  0
   29.7717   30.2919   35.1809 C   0  0  0  0  0  0  0  0  0  0  0  0
   30.6125   29.5378   36.5010 Cl  0  0  0  0  0  0  0  0  0  0  0  0
   30.3734   31.3464   34.4714 C   0  0  0  0  0  0  0  0  0  0  0  0
   29.6796   31.9221   33.3921 C   0  0  0  0  0  0  0  0  0  0  0  0
   30.3870   33.1929   32.4421 Cl  0  0  0  0  0  0  0  0  0  0  0  0
   28.3991   31.4621   33.0487 C   0  0  0  0  0  0  0  0  0  0  0  0
   27.8719   31.9108   32.2199 H   0  0  0  0  0  0  0  0  0  0  0  0
   31.6070   31.8586   34.9722 N   0  0  0  0  0  0  0  0  0  0  0  0
   32.0496   32.7754   37.2340 C   0  0  0  0  0  0  0  0  0  0  0  0
   31.6861   33.7396   38.2043 C   0  0  0  0  0  0  0  0  0  0  0  0
   31.0281   34.5626   37.9707 H   0  0  0  0  0  0  0  0  0  0  0  0
   32.2011   33.6205   39.5059 C   0  0  0  0  0  0  0  0  0  0  0  0
   31.9423   34.3519   40.2608 H   0  0  0  0  0  0  0  0  0  0  0  0
   33.3550   31.7016   38.9703 C   0  0  0  0  0  0  0  0  0  0  0  0
   34.0142   30.9102   39.3030 H   0  0  0  0  0  0  0  0  0  0  0  0
   32.8988   31.7220   37.6393 C   0  0  0  0  0  0  0  0  0  0  0  0
   33.2113   30.9465   36.9583 H   0  0  0  0  0  0  0  0  0  0  0  0
   30.8478   33.8972   35.5369 O   0  0  0  0  0  0  0  0  0  0  0  0
  1  2  1  0
  1  5  2  0
  1 13  1  0
  3 15  1  0
  3 16  1  0
  3 25  2  0
  4 15  1  0
  5  6  1  0
  5  8  1  0
  7 19  2  0
  7 21  1  0
  8  9  1  0
  8 10  2  0
 10 11  1  0
 10 15  1  0
 11 12  1  0
 11 13  2  0
 13 14  1  0
 16 17  2  0
 16 23  1  0
 17 18  1  0
 17 19  1  0
 19 20  1  0
 21 22  1  0
 21 23  2  0
 23 24  1  0
M  END
> <intraLJ>
20.697    

> <intraEL>
-1.019    

> <intraDihe>
10.118    

> <interLJ>
0.000     

> <interEJ>
0.000     

> <gridLJ>
-5.392    

> <gridEL>
0.000     

> <totalE>
24.405    

> <LGFE>
-5.392  

> <LE>
-0.317  

> <SMILES>
O=C(Nc1c(Cl)cccc1Cl)c1ccncc1

> <atom.dprop.GFE>
-0.2254 0.0000 0.0000 0.0000 -0.2911 0.0000 -0.3070 -0.2149 -0.8420 -0.1839 -0.1182 -1.7850 -0.2099 0.0000 -0.7450 -0.0631 -0.0296 0.0000 0.0886 0.0000 -0.1265 0.0000 -0.0434 0.0000 -0.2950

> <atom.prop.CLASS>
BENC NCLA NCLA NCLA BENC NCLA IMIN BENC CLBX BENC BENC CLBX BENC NCLA FORN BENC BENC NCLA GEHC NCLA GEHC NCLA BENC NCLA FORO

> <cluster_id>
1

> <rmsd_to_cluster_rep>
0.00    

> <ligRMSD>
5.50    

> <ligCOMD>
1.26    

$$$$
tyk2_liang_ejmc_22_1168
     RDKit          3D

 26 27  0  0  0  0  0  0  0  0999 V2000
   31.1654   34.7762   34.6856 Cl  0  0  0  0  0  0  0  0  0  0  0  0
   32.2647   30.0356   37.4631 Cl  0  0  0  0  0  0  0  0  0  0  0  0
   34.0179   33.6155   37.2176 C   0  0  0  0  0  0  0  0  0  0  0  0
   34.8971   34.0749   37.6459 H   0  0  0  0  0  0  0  0  0  0  0  0
   30.3769   30.2592   35.1181 N   0  0  0  0  0  0  0  0  0  0  0  0
   31.1541   29.8000   35.5935 H   0  0  0  0  0  0  0  0  0  0  0  0
   33.6967   32.2944   37.5288 C   0  0  0  0  0  0  0  0  0  0  0  0
   34.3298   31.7338   38.2017 H   0  0  0  0  0  0  0  0  0  0  0  0
   27.0740   27.6475   34.8995 N   0  0  0  0  0  0  0  0  0  0  0  0
   32.5568   31.6919   36.9892 C   0  0  0  0  0  0  0  0  0  0  0  0
   31.6946   32.4260   36.1225 C   0  0  0  0  0  0  0  0  0  0  0  0
   32.0702   33.7571   35.7777 C   0  0  0  0  0  0  0  0  0  0  0  0
   33.2156   34.3334   36.3315 C   0  0  0  0  0  0  0  0  0  0  0  0
   33.4770   35.3508   36.0770 H   0  0  0  0  0  0  0  0  0  0  0  0
   30.0872   31.7793   35.7179 S   0  0  0  0  0  0  0  0  0  0  0  0
   29.2571   29.3888   34.9778 C   0  0  0  0  0  0  0  0  0  0  0  0
   29.2173   28.2451   35.7948 C   0  0  0  0  0  0  0  0  0  0  0  0
   30.0188   28.0134   36.4793 H   0  0  0  0  0  0  0  0  0  0  0  0
   28.0986   27.3996   35.7119 C   0  0  0  0  0  0  0  0  0  0  0  0
   28.0407   26.5141   36.3315 H   0  0  0  0  0  0  0  0  0  0  0  0
   27.0859   28.7158   34.1130 C   0  0  0  0  0  0  0  0  0  0  0  0
   26.2330   28.8792   33.4664 H   0  0  0  0  0  0  0  0  0  0  0  0
   28.1564   29.6101   34.1048 C   0  0  0  0  0  0  0  0  0  0  0  0
   28.0879   30.4597   33.4486 H   0  0  0  0  0  0  0  0  0  0  0  0
   29.5483   32.6070   34.6725 O   0  0  0  0  0  0  0  0  0  0  0  0
   29.3891   31.7053   36.9740 O   0  0  0  0  0  0  0  0  0  0  0  0
  1 12  1  0
  2 10  1  0
  3  4  1  0
  3  7  2  0
  3 13  1  0
  5  6  1  0
  5 15  1  0
  5 16  1  0
  7  8  1  0
  7 10  1  0
  9 19  2  0
  9 21  1  0
 10 11  2  0
 11 12  1  0
 11 15  1  0
 12 13  2  0
 13 14  1  0
 15 25  2  0
 15 26  2  0
 16 17  2  0
 16 23  1  0
 17 18  1  0
 17 19  1  0
 19 20  1  0
 21 22  1  0
 21 23  2  0
 23 24  1  0
M  END
> <intraLJ>
23.629    

> <intraEL>
-5.713    

> <intraDihe>
9.771     

> <interLJ>
0.000     

> <interEJ>
0.000     

> <gridLJ>
-6.757    

> <gridEL>
0.000     

> <totalE>
20.929    

> <LGFE>
-6.757  

> <LE>
-0.375  

> <SMILES>
O=S(=O)(Nc1ccncc1)c1c(Cl)cccc1Cl

> <atom.dprop.GFE>
-1.7690 -0.6820 0.0401 0.0000 -0.4130 0.0000 0.0651 0.0000 -1.7190 -0.0434 0.0301 0.0132 0.0579 0.0000 0.0000 -0.2806 -0.2622 0.0000 -0.3453 0.0000 -0.1122 0.0000 -0.2919 0.0000 -0.3830 -0.6620

> <atom.prop.CLASS>
CLBX CLBX BENC NCLA FORN NCLA BENC NCLA IMIN BENC BENC BENC BENC NCLA NCLA BENC BENC NCLA GEHC NCLA GEHC NCLA BENC NCLA FORO FORO

> <cluster_id>
1

> <rmsd_to_cluster_rep>
0.00    

> <ligRMSD>
2.69    

> <ligCOMD>
1.21    

$$$$
tyk2_liang_ejmc_23_213
     RDKit          3D

 26 27  0  0  0  0  0  0  0  0999 V2000
   30.8526   33.0145   33.9597 Cl  0  0  0  0  0  0  0  0  0  0  0  0
   29.5230   28.6210   36.9875 Cl  0  0  0  0  0  0  0  0  0  0  0  0
   27.7864   30.4457   33.8772 C   0  0  0  0  0  0  0  0  0  0  0  0
   26.8918   30.3118   33.2871 H   0  0  0  0  0  0  0  0  0  0  0  0
   30.9071   31.7777   37.4253 N   0  0  0  0  0  0  0  0  0  0  0  0
   30.9857   31.2290   38.2810 H   0  0  0  0  0  0  0  0  0  0  0  0
   28.0730   29.5655   34.9237 C   0  0  0  0  0  0  0  0  0  0  0  0
   27.3978   28.7520   35.1452 H   0  0  0  0  0  0  0  0  0  0  0  0
   32.2801   35.6904   37.8798 N   0  0  0  0  0  0  0  0  0  0  0  0
   29.2294   29.7357   35.6881 C   0  0  0  0  0  0  0  0  0  0  0  0
   30.1283   30.7849   35.4053 C   0  0  0  0  0  0  0  0  0  0  0  0
   29.8171   31.6773   34.3574 C   0  0  0  0  0  0  0  0  0  0  0  0
   28.6573   31.5021   33.5987 C   0  0  0  0  0  0  0  0  0  0  0  0
   28.4345   32.1869   32.7936 H   0  0  0  0  0  0  0  0  0  0  0  0
   31.3507   30.9916   36.2593 C   0  0  0  0  0  0  0  0  0  0  0  0
   31.7563   30.0044   36.5686 H   0  0  0  0  0  0  0  0  0  0  0  0
   32.1334   31.5273   35.6837 H   0  0  0  0  0  0  0  0  0  0  0  0
   31.3302   33.1074   37.5548 C   0  0  0  0  0  0  0  0  0  0  0  0
   32.7054   33.3767   37.4541 C   0  0  0  0  0  0  0  0  0  0  0  0
   33.4219   32.5953   37.2522 H   0  0  0  0  0  0  0  0  0  0  0  0
   33.1347   34.7011   37.6254 C   0  0  0  0  0  0  0  0  0  0  0  0
   34.1858   34.9484   37.5554 H   0  0  0  0  0  0  0  0  0  0  0  0
   30.9736   35.4519   37.9761 C   0  0  0  0  0  0  0  0  0  0  0  0
   30.3218   36.2900   38.1852 H   0  0  0  0  0  0  0  0  0  0  0  0
   30.4420   34.1631   37.8288 C   0  0  0  0  0  0  0  0  0  0  0  0
   29.3804   34.0075   37.9333 H   0  0  0  0  0  0  0  0  0  0  0  0
  1 12  1  0
  2 10  1  0
  3  4  1  0
  3  7  2  0
  3 13  1  0
  5  6  1  0
  5 15  1  0
  5 18  1  0
  7  8  1  0
  7 10  1  0
  9 21  2  0
  9 23  1  0
 10 11  2  0
 11 12  1  0
 11 15  1  0
 12 13  2  0
 13 14  1  0
 15 16  1  0
 15 17  1  0
 18 19  2  0
 18 25  1  0
 19 20  1  0
 19 21  1  0
 21 22  1  0
 23 24  1  0
 23 25  2  0
 25 26  1  0
M  END
> <intraLJ>
22.703    

> <intraEL>
-1.116    

> <intraDihe>
13.153    

> <interLJ>
0.000     

> <interEJ>
0.000     

> <gridLJ>
-5.827    

> <gridEL>
0.000     

> <totalE>
28.913    

> <LGFE>
-5.827  

> <LE>
-0.364  

> <SMILES>
Clc1cccc(Cl)c1CNc1ccncc1

> <atom.dprop.GFE>
-1.5660 -1.5050 -0.2254 0.0000 -0.9080 0.0000 -0.2919 0.0000 -0.0840 -0.2806 -0.1795 -0.1839 -0.2099 0.0000 -0.4419 0.0000 0.0000 -0.0833 -0.0028 0.0000 0.0433 0.0000 0.0280 0.0000 0.0641 0.0000

> <atom.prop.CLASS>
CLBX CLBX BENC NCLA FORN NCLA BENC NCLA IMIN BENC BENC BENC BENC NCLA PRPC NCLA NCLA BENC BENC NCLA GEHC NCLA GEHC NCLA BENC NCLA

> <cluster_id>
1

> <rmsd_to_cluster_rep>
0.00    

> <ligRMSD>
6.03    

> <ligCOMD>
0.81    

$$$$
tyk2_liang_ejmc_24_1247
     RDKit          3D

 28 29  0  0  0  0  0  0  0  0999 V2000
   30.5402   32.7724   33.7104 Cl  0  0  0  0  0  0  0  0  0  0  0  0
   29.6571   28.7265   37.3002 Cl  0  0  0  0  0  0  0  0  0  0  0  0
   28.0700   29.6169   33.7106 C   0  0  0  0  0  0  0  0  0  0  0  0
   27.3222   29.2024   33.0507 H   0  0  0  0  0  0  0  0  0  0  0  0
   30.8653   32.1176   37.3262 N   0  0  0  0  0  0  0  0  0  0  0  0
   29.5433   32.6533   37.6222 C   0  0  0  0  0  0  0  0  0  0  0  0
   29.0241   32.8718   36.6635 H   0  0  0  0  0  0  0  0  0  0  0  0
   29.6524   33.5984   38.1996 H   0  0  0  0  0  0  0  0  0  0  0  0
   28.9908   31.8931   38.2136 H   0  0  0  0  0  0  0  0  0  0  0  0
   32.2325   30.8608   35.9783 O   0  0  0  0  0  0  0  0  0  0  0  0
   28.3583   28.9901   34.9290 C   0  0  0  0  0  0  0  0  0  0  0  0
   27.8349   28.0875   35.2069 H   0  0  0  0  0  0  0  0  0  0  0  0
   33.9509   33.2499   39.9604 N   0  0  0  0  0  0  0  0  0  0  0  0
   29.3264   29.5279   35.7911 C   0  0  0  0  0  0  0  0  0  0  0  0
   29.9973   30.7170   35.4472 C   0  0  0  0  0  0  0  0  0  0  0  0
   29.7300   31.3146   34.2001 C   0  0  0  0  0  0  0  0  0  0  0  0
   28.7584   30.7785   33.3478 C   0  0  0  0  0  0  0  0  0  0  0  0
   28.5450   31.2619   32.4059 H   0  0  0  0  0  0  0  0  0  0  0  0
   31.1099   31.2525   36.2877 C   0  0  0  0  0  0  0  0  0  0  0  0
   31.9246   32.5074   38.2067 C   0  0  0  0  0  0  0  0  0  0  0  0
   32.7278   31.5342   38.8227 C   0  0  0  0  0  0  0  0  0  0  0  0
   32.5874   30.4847   38.6195 H   0  0  0  0  0  0  0  0  0  0  0  0
   33.7429   31.9619   39.6933 C   0  0  0  0  0  0  0  0  0  0  0  0
   34.3838   31.2383   40.1797 H   0  0  0  0  0  0  0  0  0  0  0  0
   33.1974   34.1852   39.3872 C   0  0  0  0  0  0  0  0  0  0  0  0
   33.4027   35.2189   39.6329 H   0  0  0  0  0  0  0  0  0  0  0  0
   32.1641   33.8634   38.4986 C   0  0  0  0  0  0  0  0  0  0  0  0
   31.5585   34.6407   38.0605 H   0  0  0  0  0  0  0  0  0  0  0  0
  1 16  1  0
  2 14  1  0
  3  4  1  0
  3 11  2  0
  3 17  1  0
  5  6  1  0
  5 19  1  0
  5 20  1  0
  6  7  1  0
  6  8  1  0
  6  9  1  0
 10 19  2  0
 11 12  1  0
 11 14  1  0
 13 23  2  0
 13 25  1  0
 14 15  2  0
 15 16  1  0
 15 19  1  0
 16 17  2  0
 17 18  1  0
 20 21  2  0
 20 27  1  0
 21 22  1  0
 21 23  1  0
 23 24  1  0
 25 26  1  0
 25 27  2  0
 27 28  1  0
M  END
> <intraLJ>
24.660    

> <intraEL>
-4.378    

> <intraDihe>
20.038    

> <interLJ>
0.000     

> <interEJ>
0.000     

> <gridLJ>
-5.512    

> <gridEL>
0.000     

> <totalE>
34.808    

> <LGFE>
-5.512  

> <LE>
-0.306  

> <SMILES>
CN(C(=O)c1c(Cl)cccc1Cl)c1ccncc1

> <atom.dprop.GFE>
-1.5660 -1.5050 -0.2710 0.0000 -0.1782 -0.3134 0.0000 0.0000 0.0000 -0.3180 -0.2919 0.0000 -0.2710 -0.2806 -0.2149 -0.1839 -0.2099 0.0000 0.0000 0.0170 -0.0251 0.0000 -0.0356 0.0000 0.0956 0.0000 0.0394 0.0000

> <atom.prop.CLASS>
CLBX CLBX BENC NCLA GEHC PRPC NCLA NCLA NCLA FORO BENC NCLA IMIN BENC BENC BENC BENC NCLA NCLA BENC BENC NCLA GEHC NCLA GEHC NCLA BENC NCLA

> <cluster_id>
1

> <rmsd_to_cluster_rep>
0.00    

> <ligRMSD>
6.12    

> <ligCOMD>
1.25    

$$$$
tyk2_liang_ejmc_25_295
     RDKit          3D

 28 29  0  0  0  0  0  0  0  0999 V2000
   30.3749   31.1784   37.9443 Cl  0  0  0  0  0  0  0  0  0  0  0  0
   31.2479   35.6925   34.9365 Cl  0  0  0  0  0  0  0  0  0  0  0  0
   30.7528   35.0612   38.8783 C   0  0  0  0  0  0  0  0  0  0  0  0
   30.7328   35.6588   39.7777 H   0  0  0  0  0  0  0  0  0  0  0  0
   30.0158   31.7303   35.0223 N   0  0  0  0  0  0  0  0  0  0  0  0
   29.1975   31.6233   35.5807 H   0  0  0  0  0  0  0  0  0  0  0  0
   30.2273   30.7084   34.0275 C   0  0  0  0  0  0  0  0  0  0  0  0
   31.2321   30.2301   34.0928 H   0  0  0  0  0  0  0  0  0  0  0  0
   30.1329   31.1552   33.0129 H   0  0  0  0  0  0  0  0  0  0  0  0
   31.9843   32.7871   34.6653 O   0  0  0  0  0  0  0  0  0  0  0  0
   30.9583   35.6699   37.6344 C   0  0  0  0  0  0  0  0  0  0  0  0
   31.1040   36.7382   37.5757 H   0  0  0  0  0  0  0  0  0  0  0  0
   30.9804   34.8988   36.4625 C   0  0  0  0  0  0  0  0  0  0  0  0
   30.7772   33.5075   36.5279 C   0  0  0  0  0  0  0  0  0  0  0  0
   30.6130   32.8970   37.7900 C   0  0  0  0  0  0  0  0  0  0  0  0
   30.5813   33.6753   38.9536 C   0  0  0  0  0  0  0  0  0  0  0  0
   30.4311   33.2011   39.9122 H   0  0  0  0  0  0  0  0  0  0  0  0
   30.9607   32.6482   35.3266 C   0  0  0  0  0  0  0  0  0  0  0  0
   27.2447   27.7235   34.6727 N   0  0  0  0  0  0  0  0  0  0  0  0
   28.3638   27.7202   35.3942 C   0  0  0  0  0  0  0  0  0  0  0  0
   28.4673   26.9613   36.1588 H   0  0  0  0  0  0  0  0  0  0  0  0
   29.3835   28.6605   35.1906 C   0  0  0  0  0  0  0  0  0  0  0  0
   30.2747   28.6479   35.7985 H   0  0  0  0  0  0  0  0  0  0  0  0
   29.2060   29.6283   34.1847 C   0  0  0  0  0  0  0  0  0  0  0  0
   28.0126   29.6314   33.4437 C   0  0  0  0  0  0  0  0  0  0  0  0
   27.8295   30.3731   32.6827 H   0  0  0  0  0  0  0  0  0  0  0  0
   27.0593   28.6404   33.7244 C   0  0  0  0  0  0  0  0  0  0  0  0
   26.1307   28.6071   33.1697 H   0  0  0  0  0  0  0  0  0  0  0  0
  1 15  1  0
  2 13  1  0
  3  4  1  0
  3 11  2  0
  3 16  1  0
  5  6  1  0
  5  7  1  0
  5 18  1  0
  7  8  1  0
  7  9  1  0
  7 24  1  0
 10 18  2  0
 11 12  1  0
 11 13  1  0
 13 14  2  0
 14 15  1  0
 14 18  1  0
 15 16  2  0
 16 17  1  0
 19 20  2  0
 19 27  1  0
 20 21  1  0
 20 22  1  0
 22 23  1  0
 22 24  2  0
 24 25  1  0
 25 26  1  0
 25 27  2  0
 27 28  1  0
M  END
> <intraLJ>
22.396    

> <intraEL>
-2.990    

> <intraDihe>
7.785     

> <interLJ>
0.000     

> <interEJ>
0.000     

> <gridLJ>
-6.411    

> <gridEL>
0.000     

> <totalE>
20.780    

> <LGFE>
-6.411  

> <LE>
-0.356  

> <SMILES>
O=C(NCc1ccncc1)c1c(Cl)cccc1Cl

> <atom.dprop.GFE>
-0.6440 -1.7690 0.1957 0.0000 -0.6230 0.0000 -0.4306 0.0000 0.0000 -0.4850 0.2396 0.0000 0.2764 -0.0384 -0.0833 0.0095 0.0000 0.0000 -1.7190 -0.3453 0.0000 -0.2622 0.0000 -0.2378 -0.2710 0.0000 -0.2234 0.0000

> <atom.prop.CLASS>
CLBX CLBX BENC NCLA FORN NCLA PRPC NCLA NCLA FORO BENC NCLA BENC BENC BENC BENC NCLA NCLA IMIN GEHC NCLA BENC NCLA BENC BENC NCLA GEHC NCLA

> <cluster_id>
1

> <rmsd_to_cluster_rep>
0.00    

> <ligRMSD>
3.30    

> <ligCOMD>
1.27    

$$$$
tyk2_liang_ejmc_26_1088
     RDKit          3D

 28 30  0  0  0  0  0  0  0  0999 V2000
   30.4151   32.9331   32.9497 Cl  0  0  0  0  0  0  0  0  0  0  0  0
   30.5272   29.3508   37.0961 Cl  0  0  0  0  0  0  0  0  0  0  0  0
   28.3362   29.5574   33.7258 C   0  0  0  0  0  0  0  0  0  0  0  0
   27.5670   28.9705   33.2456 H   0  0  0  0  0  0  0  0  0  0  0  0
   28.8751   29.1380   34.9480 C   0  0  0  0  0  0  0  0  0  0  0  0
   28.5270   28.2247   35.4075 H   0  0  0  0  0  0  0  0  0  0  0  0
   29.8738   29.8957   35.5726 C   0  0  0  0  0  0  0  0  0  0  0  0
   30.2961   31.1157   35.0045 C   0  0  0  0  0  0  0  0  0  0  0  0
   29.8073   31.4945   33.7364 C   0  0  0  0  0  0  0  0  0  0  0  0
   28.8093   30.7273   33.1157 C   0  0  0  0  0  0  0  0  0  0  0  0
   28.4121   31.0347   32.1598 H   0  0  0  0  0  0  0  0  0  0  0  0
   33.3302   32.8430   36.1970 N   0  0  0  0  0  0  0  0  0  0  0  0
   32.6489   32.2412   35.1592 C   0  0  0  0  0  0  0  0  0  0  0  0
   33.1059   32.1751   34.1790 H   0  0  0  0  0  0  0  0  0  0  0  0
   31.4305   31.8116   35.5668 C   0  0  0  0  0  0  0  0  0  0  0  0
   31.3301   32.1432   36.9047 N   0  0  0  0  0  0  0  0  0  0  0  0
   30.5476   31.9508   37.5134 H   0  0  0  0  0  0  0  0  0  0  0  0
   32.5121   32.7667   37.2410 C   0  0  0  0  0  0  0  0  0  0  0  0
   33.3756   34.2084   41.1633 N   0  0  0  0  0  0  0  0  0  0  0  0
   34.0968   34.6365   40.1314 C   0  0  0  0  0  0  0  0  0  0  0  0
   34.8863   35.3491   40.3327 H   0  0  0  0  0  0  0  0  0  0  0  0
   33.8621   34.1970   38.8209 C   0  0  0  0  0  0  0  0  0  0  0  0
   34.4760   34.5733   38.0174 H   0  0  0  0  0  0  0  0  0  0  0  0
   32.8218   33.2655   38.5890 C   0  0  0  0  0  0  0  0  0  0  0  0
   32.0754   32.8274   39.7099 C   0  0  0  0  0  0  0  0  0  0  0  0
   31.2669   32.1193   39.6093 H   0  0  0  0  0  0  0  0  0  0  0  0
   32.3941   33.3314   40.9768 C   0  0  0  0  0  0  0  0  0  0  0  0
   31.8344   33.0108   41.8462 H   0  0  0  0  0  0  0  0  0  0  0  0
  1  9  1  0
  2  7  1  0
  3  4  1  0
  3  5  2  0
  3 10  1  0
  5  6  1  0
  5  7  1  0
  7  8  2  0
  8  9  1  0
  8 15  1  0
  9 10  2  0
 10 11  1  0
 12 13  1  0
 12 18  2  0
 13 14  1  0
 13 15  2  0
 15 16  1  0
 16 17  1  0
 16 18  1  0
 18 24  1  0
 19 20  2  0
 19 27  1  0
 20 21  1  0
 20 22  1  0
 22 23  1  0
 22 24  2  0
 24 25  1  0
 25 26  1  0
 25 27  2  0
 27 28  1  0
M  END
> <intraLJ>
28.218    

> <intraEL>
1.479     

> <intraDihe>
9.169     

> <interLJ>
0.000     

> <interEJ>
0.000     

> <gridLJ>
-5.411    

> <gridEL>
0.000     

> <totalE>
33.455    

> <LGFE>
-5.411  

> <LE>
-0.285  

> <SMILES>
Clc1cccc(Cl)c1-c1cnc(-c2ccncc2)[nH]1

> <atom.dprop.GFE>
-1.7850 -0.9120 -0.2710 0.0000 -0.2378 0.0000 -0.2149 -0.1795 -0.1289 -0.2084 0.0000 -0.2710 -0.1265 0.0000 -0.0609 -0.5580 0.0000 -0.1901 -0.5190 0.1259 0.0000 0.0762 0.0000 0.0065 0.0848 0.0000 -0.0410 0.0000

> <atom.prop.CLASS>
CLBX CLBX BENC NCLA BENC NCLA BENC BENC BENC BENC NCLA IMIN GEHC NCLA GEHC IMIH NCLA GEHC IMIN GEHC NCLA BENC NCLA BENC BENC NCLA GEHC NCLA

> <cluster_id>
1

> <rmsd_to_cluster_rep>
0.00    

> <ligRMSD>
6.80    

> <ligCOMD>
1.42    

$$$$
tyk2_liang_ejmc_27_1130
     RDKit          3D

 28 30  0  0  0  0  0  0  0  0999 V2000
   30.7864   32.8690   33.5950 Cl  0  0  0  0  0  0  0  0  0  0  0  0
   29.5470   28.7375   36.9885 Cl  0  0  0  0  0  0  0  0  0  0  0  0
   28.0163   29.9447   33.4664 C   0  0  0  0  0  0  0  0  0  0  0  0
   27.2330   29.6262   32.7944 H   0  0  0  0  0  0  0  0  0  0  0  0
   28.2558   29.2338   34.6487 C   0  0  0  0  0  0  0  0  0  0  0  0
   27.6577   28.3669   34.8879 H   0  0  0  0  0  0  0  0  0  0  0  0
   29.2682   29.6444   35.5248 C   0  0  0  0  0  0  0  0  0  0  0  0
   30.0486   30.7768   35.2196 C   0  0  0  0  0  0  0  0  0  0  0  0
   29.8166   31.4807   34.0191 C   0  0  0  0  0  0  0  0  0  0  0  0
   28.7974   31.0640   33.1513 C   0  0  0  0  0  0  0  0  0  0  0  0
   28.6168   31.6067   32.2353 H   0  0  0  0  0  0  0  0  0  0  0  0
   32.9645   31.4998   37.1108 C   0  0  0  0  0  0  0  0  0  0  0  0
   34.0155   31.3292   37.3109 H   0  0  0  0  0  0  0  0  0  0  0  0
   32.3347   30.7803   36.1129 N   0  0  0  0  0  0  0  0  0  0  0  0
   31.0849   31.2047   36.1412 C   0  0  0  0  0  0  0  0  0  0  0  0
   30.8725   32.1435   37.1197 N   0  0  0  0  0  0  0  0  0  0  0  0
   30.0185   32.6495   37.3059 H   0  0  0  0  0  0  0  0  0  0  0  0
   32.0927   32.3361   37.7449 C   0  0  0  0  0  0  0  0  0  0  0  0
   32.4413   35.0698   40.9761 N   0  0  0  0  0  0  0  0  0  0  0  0
   31.6707   35.4056   39.9443 C   0  0  0  0  0  0  0  0  0  0  0  0
   31.1841   36.3720   39.9769 H   0  0  0  0  0  0  0  0  0  0  0  0
   31.5158   34.5761   38.8225 C   0  0  0  0  0  0  0  0  0  0  0  0
   30.9054   34.8973   37.9934 H   0  0  0  0  0  0  0  0  0  0  0  0
   32.1385   33.3064   38.8323 C   0  0  0  0  0  0  0  0  0  0  0  0
   32.9218   32.9624   39.9567 C   0  0  0  0  0  0  0  0  0  0  0  0
   33.4419   32.0183   40.0199 H   0  0  0  0  0  0  0  0  0  0  0  0
   33.0696   33.8981   40.9892 C   0  0  0  0  0  0  0  0  0  0  0  0
   33.6865   33.6679   41.8484 H   0  0  0  0  0  0  0  0  0  0  0  0
  1  9  1  0
  2  7  1  0
  3  4  1  0
  3  5  2  0
  3 10  1  0
  5  6  1  0
  5  7  1  0
  7  8  2  0
  8  9  1  0
  8 15  1  0
  9 10  2  0
 10 11  1  0
 12 13  1  0
 12 14  1  0
 12 18  2  0
 14 15  2  0
 15 16  1  0
 16 17  1  0
 16 18  1  0
 18 24  1  0
 19 20  2  0
 19 27  1  0
 20 21  1  0
 20 22  1  0
 22 23  1  0
 22 24  2  0
 24 25  1  0
 25 26  1  0
 25 27  2  0
 27 28  1  0
M  END
> <intraLJ>
22.513    

> <intraEL>
-1.980    

> <intraDihe>
11.739    

> <interLJ>
0.000     

> <interEJ>
0.000     

> <gridLJ>
-5.801    

> <gridEL>
0.000     

> <totalE>
26.471    

> <LGFE>
-5.801  

> <LE>
-0.305  

> <SMILES>
Clc1cccc(Cl)c1-c1ncc(-c2ccncc2)[nH]1

> <atom.dprop.GFE>
-1.5660 -1.5050 -0.2254 0.0000 -0.2919 0.0000 -0.2806 -0.1795 -0.1839 -0.2099 0.0000 -0.1885 0.0000 -0.3720 0.0023 -0.5110 0.0000 -0.1182 -0.4220 0.2318 0.0000 0.0394 0.0000 -0.0296 0.0215 0.0000 -0.0127 0.0000

> <atom.prop.CLASS>
CLBX CLBX BENC NCLA BENC NCLA BENC BENC BENC BENC NCLA GEHC NCLA IMIN GEHC IMIH NCLA GEHC IMIN GEHC NCLA BENC NCLA BENC BENC NCLA GEHC NCLA

> <cluster_id>
1

> <rmsd_to_cluster_rep>
0.00    

> <ligRMSD>
6.66    

> <ligCOMD>
1.49    

$$$$
tyk2_liang_ejmc_28_796
     RDKit          3D

 27 29  0  0  0  0  0  0  0  0999 V2000
   30.8748   32.9720   33.7809 Cl  0  0  0  0  0  0  0  0  0  0  0  0
   28.7767   28.6631   36.4182 Cl  0  0  0  0  0  0  0  0  0  0  0  0
   27.7692   30.5000   32.9806 C   0  0  0  0  0  0  0  0  0  0  0  0
   27.0232   30.3816   32.2086 H   0  0  0  0  0  0  0  0  0  0  0  0
   27.7987   29.6156   34.0658 C   0  0  0  0  0  0  0  0  0  0  0  0
   27.0760   28.8157   34.1317 H   0  0  0  0  0  0  0  0  0  0  0  0
   28.7626   29.7685   35.0701 C   0  0  0  0  0  0  0  0  0  0  0  0
   29.7053   30.8116   34.9908 C   0  0  0  0  0  0  0  0  0  0  0  0
   29.6865   31.6928   33.8929 C   0  0  0  0  0  0  0  0  0  0  0  0
   28.7125   31.5346   32.8928 C   0  0  0  0  0  0  0  0  0  0  0  0
   28.6925   32.2107   32.0513 H   0  0  0  0  0  0  0  0  0  0  0  0
   32.3332   30.7700   37.3733 N   0  0  0  0  0  0  0  0  0  0  0  0
   31.7323   30.2353   36.3328 N   0  0  0  0  0  0  0  0  0  0  0  0
   30.6839   30.9896   36.0470 C   0  0  0  0  0  0  0  0  0  0  0  0
   30.5997   32.0358   36.9082 N   0  0  0  0  0  0  0  0  0  0  0  0
   29.8996   32.7626   36.9361 H   0  0  0  0  0  0  0  0  0  0  0  0
   31.6649   31.8680   37.7401 C   0  0  0  0  0  0  0  0  0  0  0  0
   32.4352   34.5651   40.9847 N   0  0  0  0  0  0  0  0  0  0  0  0
   31.6786   34.9592   39.9648 C   0  0  0  0  0  0  0  0  0  0  0  0
   31.2799   35.9652   39.9964 H   0  0  0  0  0  0  0  0  0  0  0  0
   31.3920   34.1213   38.8752 C   0  0  0  0  0  0  0  0  0  0  0  0
   30.7771   34.4921   38.0702 H   0  0  0  0  0  0  0  0  0  0  0  0
   31.9279   32.8071   38.8522 C   0  0  0  0  0  0  0  0  0  0  0  0
   32.7296   32.4217   39.9508 C   0  0  0  0  0  0  0  0  0  0  0  0
   33.1686   31.4372   40.0037 H   0  0  0  0  0  0  0  0  0  0  0  0
   32.9511   33.3389   40.9917 C   0  0  0  0  0  0  0  0  0  0  0  0
   33.5616   33.0582   41.8404 H   0  0  0  0  0  0  0  0  0  0  0  0
  1  9  1  0
  2  7  1  0
  3  4  1  0
  3  5  2  0
  3 10  1  0
  5  6  1  0
  5  7  1  0
  7  8  2  0
  8  9  1  0
  8 14  1  0
  9 10  2  0
 10 11  1  0
 12 13  1  0
 12 17  2  0
 13 14  2  0
 14 15  1  0
 15 16  1  0
 15 17  1  0
 17 23  1  0
 18 19  2  0
 18 26  1  0
 19 20  1  0
 19 21  1  0
 21 22  1  0
 21 23  2  0
 23 24  1  0
 24 25  1  0
 24 26  2  0
 26 27  1  0
M  END
> <intraLJ>
23.918    

> <intraEL>
-1.287    

> <intraDihe>
7.725     

> <interLJ>
0.000     

> <interEJ>
0.000     

> <gridLJ>
-5.654    

> <gridEL>
0.000     

> <totalE>
24.702    

> <LGFE>
-5.654  

> <LE>
-0.298  

> <SMILES>
Clc1cccc(Cl)c1-c1nnc(-c2ccncc2)[nH]1

> <atom.dprop.GFE>
-1.5660 -1.2010 -0.2254 0.0000 -0.2919 0.0000 -0.3086 -0.1795 -0.1289 -0.1373 0.0000 -0.7660 0.0910 0.0023 -0.5580 0.0000 -0.1182 -0.5190 0.2318 0.0000 0.0394 0.0000 -0.0296 0.0523 0.0000 -0.0410 0.0000

> <atom.prop.CLASS>
CLBX CLBX BENC NCLA BENC NCLA BENC BENC BENC BENC NCLA IMIN IMIN GEHC IMIH NCLA GEHC IMIN GEHC NCLA BENC NCLA BENC BENC NCLA GEHC NCLA

> <cluster_id>
1

> <rmsd_to_cluster_rep>
0.00    

> <ligRMSD>
6.61    

> <ligCOMD>
1.32    

$$$$
tyk2_liang_ejmc_29_366
     RDKit          3D

 27 28  0  0  0  0  0  0  0  0999 V2000
   30.9147   32.7681   38.9020 Cl  0  0  0  0  0  0  0  0  0  0  0  0
   31.3109   32.7670   33.4312 Cl  0  0  0  0  0  0  0  0  0  0  0  0
   32.5102   35.3697   36.2577 C   0  0  0  0  0  0  0  0  0  0  0  0
   33.0291   36.3163   36.2908 H   0  0  0  0  0  0  0  0  0  0  0  0
   29.3860   31.3531   35.5029 N   0  0  0  0  0  0  0  0  0  0  0  0
   28.9548   32.1094   35.0194 H   0  0  0  0  0  0  0  0  0  0  0  0
   31.1839   30.7044   36.7748 O   0  0  0  0  0  0  0  0  0  0  0  0
   32.2659   34.7474   35.0269 C   0  0  0  0  0  0  0  0  0  0  0  0
   32.6021   35.2113   34.1115 H   0  0  0  0  0  0  0  0  0  0  0  0
   27.3817   27.7222   34.8707 N   0  0  0  0  0  0  0  0  0  0  0  0
   31.5883   33.5212   34.9783 C   0  0  0  0  0  0  0  0  0  0  0  0
   31.1379   32.9231   36.1705 C   0  0  0  0  0  0  0  0  0  0  0  0
   31.4230   33.5246   37.4103 C   0  0  0  0  0  0  0  0  0  0  0  0
   32.0898   34.7584   37.4469 C   0  0  0  0  0  0  0  0  0  0  0  0
   32.2894   35.2321   38.3963 H   0  0  0  0  0  0  0  0  0  0  0  0
   30.5562   31.5627   36.1627 C   0  0  0  0  0  0  0  0  0  0  0  0
   28.7006   30.1072   35.3582 C   0  0  0  0  0  0  0  0  0  0  0  0
   27.8774   29.9660   34.2275 C   0  0  0  0  0  0  0  0  0  0  0  0
   27.7555   30.7727   33.5224 H   0  0  0  0  0  0  0  0  0  0  0  0
   27.2298   28.7389   34.0279 C   0  0  0  0  0  0  0  0  0  0  0  0
   26.5899   28.5889   33.1682 H   0  0  0  0  0  0  0  0  0  0  0  0
   28.1557   27.8274   35.9401 C   0  0  0  0  0  0  0  0  0  0  0  0
   28.3401   26.7558   36.7640 N   0  0  0  0  0  0  0  0  0  0  0  0
   28.9545   26.7990   37.5506 H   0  0  0  0  0  0  0  0  0  0  0  0
   27.8801   25.8877   36.5828 H   0  0  0  0  0  0  0  0  0  0  0  0
   28.8186   29.0167   36.2508 C   0  0  0  0  0  0  0  0  0  0  0  0
   29.4061   29.0669   37.1505 H   0  0  0  0  0  0  0  0  0  0  0  0
  1 13  1  0
  2 11  1  0
  3  4  1  0
  3  8  2  0
  3 14  1  0
  5  6  1  0
  5 16  1  0
  5 17  1  0
  7 16  2  0
  8  9  1  0
  8 11  1  0
 10 20  2  0
 10 22  1  0
 11 12  2  0
 12 13  1  0
 12 16  1  0
 13 14  2  0
 14 15  1  0
 17 18  2  0
 17 26  1  0
 18 19  1  0
 18 20  1  0
 20 21  1  0
 22 23  1  0
 22 26  2  0
 23 24  1  0
 23 25  1  0
 26 27  1  0
M  END
> <intraLJ>
24.437    

> <intraEL>
-13.937   

> <intraDihe>
7.997     

> <interLJ>
0.000     

> <interEJ>
0.000     

> <gridLJ>
-7.683    

> <gridEL>
0.000     

> <totalE>
10.814    

> <LGFE>
-7.683  

> <LE>
-0.427  

> <SMILES>
Nc1cc(NC(=O)c2c(Cl)cccc2Cl)ccn1

> <atom.dprop.GFE>
-0.5900 -1.5660 0.2460 0.0000 -0.6230 0.0000 -0.5020 0.0610 0.0000 -1.7190 0.0132 -0.0384 -0.0631 0.0237 0.0000 0.0000 -0.3086 -0.2248 0.0000 -0.1122 0.0000 -0.1675 -1.8690 0.0000 0.0000 -0.2430 0.0000

> <atom.prop.CLASS>
CLBX CLBX BENC NCLA FORN NCLA FORO BENC NCLA IMIN BENC BENC BENC BENC NCLA NCLA BENC BENC NCLA GEHC NCLA GEHC FORN NCLA NCLA BENC NCLA

> <cluster_id>
1

> <rmsd_to_cluster_rep>
0.00    

> <ligRMSD>
1.69    

> <ligCOMD>
1.04    

$$$$
tyk2_liang_ejmc_30_1198
     RDKit          3D

 30 31  0  0  0  0  0  0  0  0999 V2000
   30.8092   32.7736   38.9430 Cl  0  0  0  0  0  0  0  0  0  0  0  0
   31.2998   32.7702   33.4810 Cl  0  0  0  0  0  0  0  0  0  0  0  0
   32.5056   35.3451   36.3305 C   0  0  0  0  0  0  0  0  0  0  0  0
   33.0434   36.2807   36.3737 H   0  0  0  0  0  0  0  0  0  0  0  0
   29.3870   31.3677   35.4045 N   0  0  0  0  0  0  0  0  0  0  0  0
   29.0398   32.1096   34.8380 H   0  0  0  0  0  0  0  0  0  0  0  0
   30.9981   30.7425   36.9199 O   0  0  0  0  0  0  0  0  0  0  0  0
   32.2698   34.7291   35.0948 C   0  0  0  0  0  0  0  0  0  0  0  0
   32.6313   35.1866   34.1859 H   0  0  0  0  0  0  0  0  0  0  0  0
   27.3800   27.7527   34.7045 N   0  0  0  0  0  0  0  0  0  0  0  0
   31.5678   33.5174   35.0332 C   0  0  0  0  0  0  0  0  0  0  0  0
   31.0846   32.9285   36.2167 C   0  0  0  0  0  0  0  0  0  0  0  0
   31.3600   33.5221   37.4621 C   0  0  0  0  0  0  0  0  0  0  0  0
   32.0518   34.7417   37.5116 C   0  0  0  0  0  0  0  0  0  0  0  0
   32.2446   35.2105   38.4649 H   0  0  0  0  0  0  0  0  0  0  0  0
   30.4723   31.5828   36.1963 C   0  0  0  0  0  0  0  0  0  0  0  0
   28.6934   30.1303   35.2292 C   0  0  0  0  0  0  0  0  0  0  0  0
   27.9403   29.9784   34.0529 C   0  0  0  0  0  0  0  0  0  0  0  0
   27.8717   30.7740   33.3282 H   0  0  0  0  0  0  0  0  0  0  0  0
   27.2924   28.7545   33.8342 C   0  0  0  0  0  0  0  0  0  0  0  0
   26.7072   28.5949   32.9381 H   0  0  0  0  0  0  0  0  0  0  0  0
   28.0781   27.8684   35.8271 C   0  0  0  0  0  0  0  0  0  0  0  0
   28.1170   26.7655   36.6525 N   0  0  0  0  0  0  0  0  0  0  0  0
   29.3221   26.4525   37.4455 C   0  0  0  0  0  0  0  0  0  0  0  0
   29.1812   25.4931   37.9905 H   0  0  0  0  0  0  0  0  0  0  0  0
   29.5259   27.2427   38.1994 H   0  0  0  0  0  0  0  0  0  0  0  0
   30.2128   26.3488   36.7878 H   0  0  0  0  0  0  0  0  0  0  0  0
   27.8504   25.9065   36.1745 H   0  0  0  0  0  0  0  0  0  0  0  0
   28.7401   29.0572   36.1461 C   0  0  0  0  0  0  0  0  0  0  0  0
   29.2500   29.1357   37.0877 H   0  0  0  0  0  0  0  0  0  0  0  0
  1 13  1  0
  2 11  1  0
  3  4  1  0
  3  8  2  0
  3 14  1  0
  5  6  1  0
  5 16  1  0
  5 17  1  0
  7 16  2  0
  8  9  1  0
  8 11  1  0
 10 20  2  0
 10 22  1  0
 11 12  2  0
 12 13  1  0
 12 16  1  0
 13 14  2  0
 14 15  1  0
 17 18  2  0
 17 29  1  0
 18 19  1  0
 18 20  1  0
 20 21  1  0
 22 23  1  0
 22 29  2  0
 23 24  1  0
 23 28  1  0
 24 25  1  0
 24 26  1  0
 24 27  1  0
 29 30  1  0
M  END
> <intraLJ>
26.819    

> <intraEL>
-9.173    

> <intraDihe>
14.797    

> <interLJ>
0.000     

> <interEJ>
0.000     

> <gridLJ>
-7.793    

> <gridEL>
0.000     

> <totalE>
24.650    

> <LGFE>
-7.793  

> <LE>
-0.410  

> <SMILES>
CNc1cc(NC(=O)c2c(Cl)cccc2Cl)ccn1

> <atom.dprop.GFE>
-0.5900 -1.5660 0.2460 0.0000 -0.6230 0.0000 -0.5020 0.0610 0.0000 -1.7190 0.0132 -0.0384 -0.0833 0.0237 0.0000 0.0000 -0.3086 -0.2248 0.0000 -0.2234 0.0000 -0.1675 -1.8690 0.0213 0.0000 0.0000 0.0000 0.0000 -0.2430 0.0000

> <atom.prop.CLASS>
CLBX CLBX BENC NCLA FORN NCLA FORO BENC NCLA IMIN BENC BENC BENC BENC NCLA NCLA BENC BENC NCLA GEHC NCLA GEHC FORN PRPC NCLA NCLA NCLA NCLA BENC NCLA

> <cluster_id>
1

> <rmsd_to_cluster_rep>
0.00    

> <ligRMSD>
1.63    

> <ligCOMD>
0.94    

$$$$
tyk2_liang_ejmc_31_624
     RDKit          3D

 32 33  0  0  0  0  0  0  0  0999 V2000
   31.2734   32.1991   38.4166 Cl  0  0  0  0  0  0  0  0  0  0  0  0
   31.1337   32.8833   32.9736 Cl  0  0  0  0  0  0  0  0  0  0  0  0
   32.6163   35.1151   35.9744 C   0  0  0  0  0  0  0  0  0  0  0  0
   33.1433   36.0525   36.0754 H   0  0  0  0  0  0  0  0  0  0  0  0
   29.4204   31.1885   34.9838 N   0  0  0  0  0  0  0  0  0  0  0  0
   28.9624   31.9783   34.5857 H   0  0  0  0  0  0  0  0  0  0  0  0
   31.3010   30.3901   36.0157 O   0  0  0  0  0  0  0  0  0  0  0  0
   32.2482   34.6510   34.7058 C   0  0  0  0  0  0  0  0  0  0  0  0
   32.4978   35.2274   33.8273 H   0  0  0  0  0  0  0  0  0  0  0  0
   27.3662   27.5683   34.4494 N   0  0  0  0  0  0  0  0  0  0  0  0
   31.5592   33.4375   34.5700 C   0  0  0  0  0  0  0  0  0  0  0  0
   31.2213   32.6872   35.7128 C   0  0  0  0  0  0  0  0  0  0  0  0
   31.6338   33.1327   36.9847 C   0  0  0  0  0  0  0  0  0  0  0  0
   32.3095   34.3562   37.1114 C   0  0  0  0  0  0  0  0  0  0  0  0
   32.6049   34.7070   38.0890 H   0  0  0  0  0  0  0  0  0  0  0  0
   30.6385   31.3278   35.5771 C   0  0  0  0  0  0  0  0  0  0  0  0
   28.7179   29.9547   34.8374 C   0  0  0  0  0  0  0  0  0  0  0  0
   28.0209   29.7170   33.6418 C   0  0  0  0  0  0  0  0  0  0  0  0
   28.0094   30.4484   32.8497 H   0  0  0  0  0  0  0  0  0  0  0  0
   27.3500   28.4928   33.4960 C   0  0  0  0  0  0  0  0  0  0  0  0
   26.7949   28.2757   32.5926 H   0  0  0  0  0  0  0  0  0  0  0  0
   28.0485   27.7668   35.5757 C   0  0  0  0  0  0  0  0  0  0  0  0
   28.0050   26.7051   36.5117 N   0  0  0  0  0  0  0  0  0  0  0  0
   28.9901   26.2202   37.2972 C   0  0  0  0  0  0  0  0  0  0  0  0
   30.3838   26.7718   37.2193 C   0  0  0  0  0  0  0  0  0  0  0  0
   30.6689   26.9931   36.1691 H   0  0  0  0  0  0  0  0  0  0  0  0
   31.1032   26.0267   37.6233 H   0  0  0  0  0  0  0  0  0  0  0  0
   30.4693   27.6987   37.8253 H   0  0  0  0  0  0  0  0  0  0  0  0
   27.1238   26.2433   36.5201 H   0  0  0  0  0  0  0  0  0  0  0  0
   28.6852   28.9771   35.8489 C   0  0  0  0  0  0  0  0  0  0  0  0
   29.1449   29.1522   36.8066 H   0  0  0  0  0  0  0  0  0  0  0  0
   28.7408   25.2973   38.0635 O   0  0  0  0  0  0  0  0  0  0  0  0
  1 13  1  0
  2 11  1  0
  3  4  1  0
  3  8  2  0
  3 14  1  0
  5  6  1  0
  5 16  1  0
  5 17  1  0
  7 16  2  0
  8  9  1  0
  8 11  1  0
 10 20  2  0
 10 22  1  0
 11 12  2  0
 12 13  1  0
 12 16  1  0
 13 14  2  0
 14 15  1  0
 17 18  2  0
 17 30  1  0
 18 19  1  0
 18 20  1  0
 20 21  1  0
 22 23  1  0
 22 30  2  0
 23 24  1  0
 23 29  1  0
 24 25  1  0
 24 32  2  0
 25 26  1  0
 25 27  1  0
 25 28  1  0
 30 31  1  0
M  END
> <intraLJ>
24.727    

> <intraEL>
-19.685   

> <intraDihe>
19.656    

> <interLJ>
0.000     

> <interEJ>
0.000     

> <gridLJ>
-8.451    

> <gridEL>
0.000     

> <totalE>
16.247    

> <LGFE>
-8.451  

> <LE>
-0.402  

> <SMILES>
CC(=O)Nc1cc(NC(=O)c2c(Cl)cccc2Cl)ccn1

> <atom.dprop.GFE>
-0.2410 -1.7850 0.2460 0.0000 -0.6230 0.0000 -0.5020 0.2460 0.0000 -1.7190 0.0077 -0.0982 -0.0631 0.0237 0.0000 0.0000 -0.2911 -0.2710 0.0000 -0.2234 0.0000 -0.3453 -1.8690 0.0000 -0.0470 0.0000 0.0000 0.0000 0.0000 -0.2806 0.0000 -0.6160

> <atom.prop.CLASS>
CLBX CLBX BENC NCLA FORN NCLA FORO BENC NCLA IMIN BENC BENC BENC BENC NCLA NCLA BENC BENC NCLA GEHC NCLA GEHC FORN NCLA PRPC NCLA NCLA NCLA NCLA BENC NCLA FORO

> <cluster_id>
1

> <rmsd_to_cluster_rep>
0.00    

> <ligRMSD>
1.81    

> <ligCOMD>
0.95    

$$$$
tyk2_liang_ejmc_32_1050
     RDKit          3D

 32 33  0  0  0  0  0  0  0  0999 V2000
   31.1671   32.4174   38.8505 Cl  0  0  0  0  0  0  0  0  0  0  0  0
   31.0061   32.7699   33.3339 Cl  0  0  0  0  0  0  0  0  0  0  0  0
   32.4192   35.1819   36.2182 C   0  0  0  0  0  0  0  0  0  0  0  0
   32.9168   36.1395   36.2643 H   0  0  0  0  0  0  0  0  0  0  0  0
   29.4061   31.1520   35.3538 N   0  0  0  0  0  0  0  0  0  0  0  0
   29.0098   31.9201   34.8594 H   0  0  0  0  0  0  0  0  0  0  0  0
   31.1758   30.4175   36.6105 O   0  0  0  0  0  0  0  0  0  0  0  0
   32.0472   34.6449   34.9810 C   0  0  0  0  0  0  0  0  0  0  0  0
   32.2669   35.1856   34.0722 H   0  0  0  0  0  0  0  0  0  0  0  0
   27.3721   27.5435   34.8146 N   0  0  0  0  0  0  0  0  0  0  0  0
   31.4024   33.4038   34.9113 C   0  0  0  0  0  0  0  0  0  0  0  0
   31.1198   32.6940   36.0990 C   0  0  0  0  0  0  0  0  0  0  0  0
   31.5099   33.2318   37.3445 C   0  0  0  0  0  0  0  0  0  0  0  0
   32.1456   34.4780   37.3958 C   0  0  0  0  0  0  0  0  0  0  0  0
   32.4312   34.8943   38.3506 H   0  0  0  0  0  0  0  0  0  0  0  0
   30.5656   31.3216   36.0408 C   0  0  0  0  0  0  0  0  0  0  0  0
   28.6743   29.9389   35.2276 C   0  0  0  0  0  0  0  0  0  0  0  0
   28.0604   29.6719   33.9945 C   0  0  0  0  0  0  0  0  0  0  0  0
   28.1127   30.3779   33.1811 H   0  0  0  0  0  0  0  0  0  0  0  0
   27.3792   28.4561   33.8474 C   0  0  0  0  0  0  0  0  0  0  0  0
   26.8746   28.2164   32.9207 H   0  0  0  0  0  0  0  0  0  0  0  0
   27.9979   27.7540   35.9668 C   0  0  0  0  0  0  0  0  0  0  0  0
   28.1018   26.6652   36.7956 N   0  0  0  0  0  0  0  0  0  0  0  0
   28.6257   26.5885   38.4600 S   0  0  0  0  0  0  0  0  0  0  0  0
   30.3331   26.7679   37.8618 C   0  0  0  0  0  0  0  0  0  0  0  0
   30.5219   26.2985   36.8710 H   0  0  0  0  0  0  0  0  0  0  0  0
   31.0323   26.2845   38.5776 H   0  0  0  0  0  0  0  0  0  0  0  0
   30.6322   27.8360   37.8044 H   0  0  0  0  0  0  0  0  0  0  0  0
   27.5464   25.8679   36.4870 H   0  0  0  0  0  0  0  0  0  0  0  0
   28.5607   29.0008   36.2698 C   0  0  0  0  0  0  0  0  0  0  0  0
   28.9904   29.2022   37.2361 H   0  0  0  0  0  0  0  0  0  0  0  0
   28.5318   25.1844   39.0550 O   0  0  0  0  0  0  0  0  0  0  0  0
  1 13  1  0
  2 11  1  0
  3  4  1  0
  3  8  2  0
  3 14  1  0
  5  6  1  0
  5 16  1  0
  5 17  1  0
  7 16  2  0
  8  9  1  0
  8 11  1  0
 10 20  2  0
 10 22  1  0
 11 12  2  0
 12 13  1  0
 12 16  1  0
 13 14  2  0
 14 15  1  0
 17 18  2  0
 17 30  1  0
 18 19  1  0
 18 20  1  0
 20 21  1  0
 22 23  1  0
 22 30  2  0
 23 24  1  0
 23 29  1  0
 24 25  1  0
 24 32  2  0
 25 26  1  0
 25 27  1  0
 25 28  1  0
 30 31  1  0
M  END
> <intraLJ>
25.059    

> <intraEL>
-16.801   

> <intraDihe>
12.919    

> <interLJ>
0.000     

> <interEJ>
0.000     

> <gridLJ>
-8.831    

> <gridEL>
0.000     

> <totalE>
12.346    

> <LGFE>
-8.831  

> <LE>
-0.421  

> <SMILES>
CS(=O)Nc1cc(NC(=O)c2c(Cl)cccc2Cl)ccn1

> <atom.dprop.GFE>
-0.2410 -1.5660 0.2460 0.0000 -0.6230 0.0000 -0.5020 0.0610 0.0000 -1.7190 0.0077 -0.0548 -0.0631 0.0237 0.0000 0.0000 -0.3086 -0.2919 0.0000 -0.2234 0.0000 -0.3453 -1.8690 0.0000 -0.0470 0.0000 0.0000 0.0000 0.0000 -0.2430 0.0000 -1.0720

> <atom.prop.CLASS>
CLBX CLBX BENC NCLA FORN NCLA FORO BENC NCLA IMIN BENC BENC BENC BENC NCLA NCLA BENC BENC NCLA GEHC NCLA GEHC FORN NCLA PRPC NCLA NCLA NCLA NCLA BENC NCLA FORO

> <cluster_id>
1

> <rmsd_to_cluster_rep>
0.00    

> <ligRMSD>
1.82    

> <ligCOMD>
0.89    

$$$$
tyk2_liang_ejmc_33_1178
     RDKit          3D

 37 39  0  0  0  0  0  0  0  0999 V2000
   30.3086   32.1237   38.9161 Cl  0  0  0  0  0  0  0  0  0  0  0  0
   30.9730   32.8189   33.5053 Cl  0  0  0  0  0  0  0  0  0  0  0  0
   31.8754   35.1102   36.6978 C   0  0  0  0  0  0  0  0  0  0  0  0
   32.3355   36.0712   36.8751 H   0  0  0  0  0  0  0  0  0  0  0  0
   29.0413   31.0487   35.2580 N   0  0  0  0  0  0  0  0  0  0  0  0
   28.6125   31.8212   34.7989 H   0  0  0  0  0  0  0  0  0  0  0  0
   30.7893   30.3352   36.5545 O   0  0  0  0  0  0  0  0  0  0  0  0
   31.7297   34.6335   35.3884 C   0  0  0  0  0  0  0  0  0  0  0  0
   32.0842   35.2255   34.5577 H   0  0  0  0  0  0  0  0  0  0  0  0
   27.1498   27.3996   34.4387 N   0  0  0  0  0  0  0  0  0  0  0  0
   27.7089   26.5511   36.5670 N   0  0  0  0  0  0  0  0  0  0  0  0
   27.1937   25.7169   36.2939 H   0  0  0  0  0  0  0  0  0  0  0  0
   31.1277   33.3886   35.1492 C   0  0  0  0  0  0  0  0  0  0  0  0
   30.6532   32.6220   36.2329 C   0  0  0  0  0  0  0  0  0  0  0  0
   30.8425   33.0809   37.5532 C   0  0  0  0  0  0  0  0  0  0  0  0
   31.4330   34.3344   37.7775 C   0  0  0  0  0  0  0  0  0  0  0  0
   31.5572   34.6960   38.7874 H   0  0  0  0  0  0  0  0  0  0  0  0
   30.1544   31.2400   36.0188 C   0  0  0  0  0  0  0  0  0  0  0  0
   28.4051   29.7931   35.0163 C   0  0  0  0  0  0  0  0  0  0  0  0
   27.7806   29.5994   33.7736 C   0  0  0  0  0  0  0  0  0  0  0  0
   27.7885   30.3718   33.0212 H   0  0  0  0  0  0  0  0  0  0  0  0
   27.1607   28.3662   33.5269 C   0  0  0  0  0  0  0  0  0  0  0  0
   26.6723   28.1750   32.5804 H   0  0  0  0  0  0  0  0  0  0  0  0
   27.7334   27.5607   35.6266 C   0  0  0  0  0  0  0  0  0  0  0  0
   28.3602   28.7569   35.9698 C   0  0  0  0  0  0  0  0  0  0  0  0
   28.7889   28.8835   36.9515 H   0  0  0  0  0  0  0  0  0  0  0  0
   29.3383   26.4894   40.4549 C   0  0  0  0  0  0  0  0  0  0  0  0
   29.7439   26.4679   41.4557 H   0  0  0  0  0  0  0  0  0  0  0  0
   27.9698   26.7166   40.2593 C   0  0  0  0  0  0  0  0  0  0  0  0
   27.3213   26.8684   41.1097 H   0  0  0  0  0  0  0  0  0  0  0  0
   27.4422   26.7488   38.9620 C   0  0  0  0  0  0  0  0  0  0  0  0
   26.3849   26.9256   38.8242 H   0  0  0  0  0  0  0  0  0  0  0  0
   28.2834   26.5566   37.8548 C   0  0  0  0  0  0  0  0  0  0  0  0
   29.6540   26.3041   38.0614 C   0  0  0  0  0  0  0  0  0  0  0  0
   30.3133   26.1245   37.2249 H   0  0  0  0  0  0  0  0  0  0  0  0
   30.1807   26.2846   39.3560 C   0  0  0  0  0  0  0  0  0  0  0  0
   31.2345   26.1016   39.5078 H   0  0  0  0  0  0  0  0  0  0  0  0
  1 15  1  0
  2 13  1  0
  3  4  1  0
  3  8  2  0
  3 16  1  0
  5  6  1  0
  5 18  1  0
  5 19  1  0
  7 18  2  0
  8  9  1  0
  8 13  1  0
 10 22  2  0
 10 24  1  0
 11 12  1  0
 11 24  1  0
 11 33  1  0
 13 14  2  0
 14 15  1  0
 14 18  1  0
 15 16  2  0
 16 17  1  0
 19 20  2  0
 19 25  1  0
 20 21  1  0
 20 22  1  0
 22 23  1  0
 24 25  2  0
 25 26  1  0
 27 28  1  0
 27 29  2  0
 27 36  1  0
 29 30  1  0
 29 31  1  0
 31 32  1  0
 31 33  2  0
 33 34  1  0
 34 35  1  0
 34 36  2  0
 36 37  1  0
M  END
> <intraLJ>
36.420    

> <intraEL>
-14.202   

> <intraDihe>
10.284    

> <interLJ>
0.000     

> <interEJ>
0.000     

> <gridLJ>
-7.197    

> <gridEL>
0.000     

> <totalE>
25.306    

> <LGFE>
-7.197  

> <LE>
-0.300  

> <SMILES>
O=C(Nc1ccnc(Nc2ccccc2)c1)c1c(Cl)cccc1Cl

> <atom.dprop.GFE>
-0.4980 -1.5660 0.2679 0.0000 -0.0130 0.0000 -0.5020 0.0610 0.0000 -1.7190 -1.8690 0.0000 0.0222 -0.0548 -0.0833 0.0237 0.0000 0.0000 -0.3086 -0.2710 0.0000 -0.2234 0.0000 -0.3453 -0.2635 0.0000 -0.0713 0.0000 -0.0189 0.0000 0.0661 0.0000 0.0020 0.1571 0.0000 0.0107 0.0000

> <atom.prop.CLASS>
CLBX CLBX BENC NCLA FORN NCLA FORO BENC NCLA IMIN FORN NCLA BENC BENC BENC BENC NCLA NCLA BENC BENC NCLA GEHC NCLA GEHC BENC NCLA BENC NCLA BENC NCLA BENC NCLA BENC BENC NCLA BENC NCLA

> <cluster_id>
1

> <rmsd_to_cluster_rep>
0.00    

> <ligRMSD>
3.29    

> <ligCOMD>
1.18    

$$$$
tyk2_liang_ejmc_34_1034
     RDKit          3D

 36 38  0  0  0  0  0  0  0  0999 V2000
   31.0005   32.4169   38.8113 Cl  0  0  0  0  0  0  0  0  0  0  0  0
   31.3326   32.8290   33.3419 Cl  0  0  0  0  0  0  0  0  0  0  0  0
   32.5365   35.2275   36.3521 C   0  0  0  0  0  0  0  0  0  0  0  0
   33.0450   36.1752   36.4512 H   0  0  0  0  0  0  0  0  0  0  0  0
   29.4458   31.2464   35.3012 N   0  0  0  0  0  0  0  0  0  0  0  0
   29.0207   32.0356   34.8678 H   0  0  0  0  0  0  0  0  0  0  0  0
   31.2500   30.5029   36.5110 O   0  0  0  0  0  0  0  0  0  0  0  0
   32.2858   34.6961   35.0801 C   0  0  0  0  0  0  0  0  0  0  0  0
   32.6072   35.2328   34.1999 H   0  0  0  0  0  0  0  0  0  0  0  0
   27.3763   27.7080   34.4354 N   0  0  0  0  0  0  0  0  0  0  0  0
   28.2435   26.6332   36.3435 N   0  0  0  0  0  0  0  0  0  0  0  0
   28.2195   25.7412   35.8551 H   0  0  0  0  0  0  0  0  0  0  0  0
   31.6204   33.4681   34.9423 C   0  0  0  0  0  0  0  0  0  0  0  0
   31.1899   32.7744   36.0920 C   0  0  0  0  0  0  0  0  0  0  0  0
   31.4826   33.2869   37.3726 C   0  0  0  0  0  0  0  0  0  0  0  0
   32.1359   34.5233   37.4955 C   0  0  0  0  0  0  0  0  0  0  0  0
   32.3404   34.9269   38.4760 H   0  0  0  0  0  0  0  0  0  0  0  0
   30.6159   31.4097   35.9787 C   0  0  0  0  0  0  0  0  0  0  0  0
   28.7565   30.0193   35.0570 C   0  0  0  0  0  0  0  0  0  0  0  0
   27.9355   29.9612   33.9180 C   0  0  0  0  0  0  0  0  0  0  0  0
   27.8380   30.8102   33.2603 H   0  0  0  0  0  0  0  0  0  0  0  0
   27.2564   28.7668   33.6446 C   0  0  0  0  0  0  0  0  0  0  0  0
   26.6199   28.6803   32.7737 H   0  0  0  0  0  0  0  0  0  0  0  0
   28.1374   27.7386   35.5280 C   0  0  0  0  0  0  0  0  0  0  0  0
   28.8395   28.8883   35.8918 C   0  0  0  0  0  0  0  0  0  0  0  0
   29.4239   28.8972   36.7974 H   0  0  0  0  0  0  0  0  0  0  0  0
   29.1170   26.0849   40.3428 C   0  0  0  0  0  0  0  0  0  0  0  0
   29.3683   25.8770   41.3707 H   0  0  0  0  0  0  0  0  0  0  0  0
   28.5238   27.2986   39.9738 C   0  0  0  0  0  0  0  0  0  0  0  0
   28.3055   28.0458   40.7225 H   0  0  0  0  0  0  0  0  0  0  0  0
   28.2069   27.5387   38.6278 C   0  0  0  0  0  0  0  0  0  0  0  0
   27.7242   28.4615   38.3514 H   0  0  0  0  0  0  0  0  0  0  0  0
   28.5243   26.5346   37.6870 C   0  0  0  0  0  0  0  0  0  0  0  0
   29.0533   25.3771   38.0662 N   0  0  0  0  0  0  0  0  0  0  0  0
   29.3658   25.1427   39.3358 C   0  0  0  0  0  0  0  0  0  0  0  0
   29.8093   24.1858   39.5781 H   0  0  0  0  0  0  0  0  0  0  0  0
  1 15  1  0
  2 13  1  0
  3  4  1  0
  3  8  2  0
  3 16  1  0
  5  6  1  0
  5 18  1  0
  5 19  1  0
  7 18  2  0
  8  9  1  0
  8 13  1  0
 10 22  2  0
 10 24  1  0
 11 12  1  0
 11 24  1  0
 11 33  1  0
 13 14  2  0
 14 15  1  0
 14 18  1  0
 15 16  2  0
 16 17  1  0
 19 20  2  0
 19 25  1  0
 20 21  1  0
 20 22  1  0
 22 23  1  0
 24 25  2  0
 25 26  1  0
 27 28  1  0
 27 29  2  0
 27 35  1  0
 29 30  1  0
 29 31  1  0
 31 32  1  0
 31 33  2  0
 33 34  1  0
 34 35  2  0
 35 36  1  0
M  END
> <intraLJ>
39.429    

> <intraEL>
-15.817   

> <intraDihe>
13.376    

> <interLJ>
0.000     

> <interEJ>
0.000     

> <gridLJ>
-7.960    

> <gridEL>
0.000     

> <totalE>
29.028    

> <LGFE>
-7.960  

> <LE>
-0.332  

> <SMILES>
O=C(Nc1ccnc(Nc2ccccn2)c1)c1c(Cl)cccc1Cl

> <atom.dprop.GFE>
-0.2410 -1.5660 0.2460 0.0000 -0.6230 0.0000 -0.5020 0.0610 0.0000 -1.7190 -1.8690 0.0000 0.0077 -0.0384 -0.0631 0.0237 0.0000 0.0000 -0.3086 -0.2254 0.0000 -0.2234 0.0000 -0.3453 -0.2806 0.0000 -0.0713 0.0000 -0.0110 0.0000 0.2281 0.0000 -0.1702 0.0470 -0.3164 0.0000

> <atom.prop.CLASS>
CLBX CLBX BENC NCLA FORN NCLA FORO BENC NCLA IMIN FORN NCLA BENC BENC BENC BENC NCLA NCLA BENC BENC NCLA GEHC NCLA GEHC BENC NCLA BENC NCLA BENC NCLA BENC NCLA GEHC IMIN GEHC NCLA

> <cluster_id>
1

> <rmsd_to_cluster_rep>
0.00    

> <ligRMSD>
3.06    

> <ligCOMD>
1.21    

$$$$
tyk2_liang_ejmc_35_262
     RDKit          3D

 35 37  0  0  0  0  0  0  0  0999 V2000
   28.0460   28.0529   34.6236 Cl  0  0  0  0  0  0  0  0  0  0  0  0
   29.4140   32.9369   32.5034 Cl  0  0  0  0  0  0  0  0  0  0  0  0
   27.3931   29.7750   31.0344 C   0  0  0  0  0  0  0  0  0  0  0  0
   26.8956   29.5163   30.1113 H   0  0  0  0  0  0  0  0  0  0  0  0
   30.3250   30.1360   35.2333 N   0  0  0  0  0  0  0  0  0  0  0  0
   30.7343   29.4222   34.6727 H   0  0  0  0  0  0  0  0  0  0  0  0
   28.7099   31.7664   35.3230 O   0  0  0  0  0  0  0  0  0  0  0  0
   28.0128   31.0240   31.1705 C   0  0  0  0  0  0  0  0  0  0  0  0
   27.9867   31.7296   30.3535 H   0  0  0  0  0  0  0  0  0  0  0  0
   32.2105   30.4583   38.9599 N   0  0  0  0  0  0  0  0  0  0  0  0
   31.9954   32.7902   38.9730 N   0  0  0  0  0  0  0  0  0  0  0  0
   31.5329   33.5834   38.5368 H   0  0  0  0  0  0  0  0  0  0  0  0
   28.6656   31.3654   32.3645 C   0  0  0  0  0  0  0  0  0  0  0  0
   28.7072   30.4403   33.4274 C   0  0  0  0  0  0  0  0  0  0  0  0
   28.0472   29.2005   33.3049 C   0  0  0  0  0  0  0  0  0  0  0  0
   27.4108   28.8658   32.1001 C   0  0  0  0  0  0  0  0  0  0  0  0
   26.9229   27.9078   31.9994 H   0  0  0  0  0  0  0  0  0  0  0  0
   29.2606   30.8315   34.7473 C   0  0  0  0  0  0  0  0  0  0  0  0
   30.9650   30.3027   36.4982 C   0  0  0  0  0  0  0  0  0  0  0  0
   31.3799   29.1364   37.1649 C   0  0  0  0  0  0  0  0  0  0  0  0
   31.2309   28.1631   36.7255 H   0  0  0  0  0  0  0  0  0  0  0  0
   32.0049   29.2673   38.4121 C   0  0  0  0  0  0  0  0  0  0  0  0
   32.3479   28.3944   38.9521 H   0  0  0  0  0  0  0  0  0  0  0  0
   31.8004   31.5748   38.3602 C   0  0  0  0  0  0  0  0  0  0  0  0
   31.1635   31.5496   37.1216 C   0  0  0  0  0  0  0  0  0  0  0  0
   30.8269   32.4694   36.6723 H   0  0  0  0  0  0  0  0  0  0  0  0
   34.0785   33.8246   42.3214 C   0  0  0  0  0  0  0  0  0  0  0  0
   34.6176   34.1198   43.2059 H   0  0  0  0  0  0  0  0  0  0  0  0
   34.1322   32.5096   41.8299 C   0  0  0  0  0  0  0  0  0  0  0  0
   34.7251   31.7635   42.3436 H   0  0  0  0  0  0  0  0  0  0  0  0
   33.4619   32.1211   40.7466 N   0  0  0  0  0  0  0  0  0  0  0  0
   32.7152   33.0913   40.1028 C   0  0  0  0  0  0  0  0  0  0  0  0
   32.6259   34.4049   40.4925 N   0  0  0  0  0  0  0  0  0  0  0  0
   33.2889   34.7373   41.6000 C   0  0  0  0  0  0  0  0  0  0  0  0
   33.2186   35.7661   41.9299 H   0  0  0  0  0  0  0  0  0  0  0  0
  1 15  1  0
  2 13  1  0
  3  4  1  0
  3  8  2  0
  3 16  1  0
  5  6  1  0
  5 18  1  0
  5 19  1  0
  7 18  2  0
  8  9  1  0
  8 13  1  0
 10 22  2  0
 10 24  1  0
 11 12  1  0
 11 24  1  0
 11 32  1  0
 13 14  2  0
 14 15  1  0
 14 18  1  0
 15 16  2  0
 16 17  1  0
 19 20  2  0
 19 25  1  0
 20 21  1  0
 20 22  1  0
 22 23  1  0
 24 25  2  0
 25 26  1  0
 27 28  1  0
 27 29  2  0
 27 34  1  0
 29 30  1  0
 29 31  1  0
 31 32  2  0
 32 33  1  0
 33 34  2  0
 34 35  1  0
M  END
> <intraLJ>
44.418    

> <intraEL>
-27.682   

> <intraDihe>
10.237    

> <interLJ>
0.000     

> <interEJ>
0.000     

> <gridLJ>
-6.223    

> <gridEL>
0.000     

> <totalE>
20.750    

> <LGFE>
-6.223  

> <LE>
-0.259  

> <SMILES>
O=C(Nc1ccnc(Nc2ncccn2)c1)c1c(Cl)cccc1Cl

> <atom.dprop.GFE>
-1.3860 -1.5520 -0.0149 0.0000 -0.4130 0.0000 -0.3930 0.0620 0.0000 -0.5270 -0.8420 0.0000 -0.1373 -0.2084 -0.2710 -0.1740 0.0000 0.0000 -0.0690 -0.0608 0.0000 -0.1275 0.0000 -0.0862 -0.0584 0.0000 0.0043 0.0000 0.0215 0.0000 0.0690 0.0113 -0.0670 -0.0033 0.0000

> <atom.prop.CLASS>
CLBX CLBX BENC NCLA FORN NCLA FORO BENC NCLA IMIN FORN NCLA BENC BENC BENC BENC NCLA NCLA BENC BENC NCLA GEHC NCLA GEHC BENC NCLA BENC NCLA BENC NCLA IMIN GEHC IMIN BENC NCLA

> <cluster_id>
1

> <rmsd_to_cluster_rep>
0.00    

> <ligRMSD>
8.26    

> <ligCOMD>
1.81    

$$$$
tyk2_liang_ejmc_36_799
     RDKit          3D

 35 37  0  0  0  0  0  0  0  0999 V2000
   28.1368   28.0213   34.5032 Cl  0  0  0  0  0  0  0  0  0  0  0  0
   29.4147   33.0172   32.6000 Cl  0  0  0  0  0  0  0  0  0  0  0  0
   27.4794   29.8748   30.9799 C   0  0  0  0  0  0  0  0  0  0  0  0
   26.9966   29.6438   30.0418 H   0  0  0  0  0  0  0  0  0  0  0  0
   30.3229   30.1001   35.2589 N   0  0  0  0  0  0  0  0  0  0  0  0
   30.7390   29.3832   34.7071 H   0  0  0  0  0  0  0  0  0  0  0  0
   28.7445   31.7616   35.3296 O   0  0  0  0  0  0  0  0  0  0  0  0
   28.0693   31.1306   31.1742 C   0  0  0  0  0  0  0  0  0  0  0  0
   28.0344   31.8691   30.3871 H   0  0  0  0  0  0  0  0  0  0  0  0
   32.2829   30.6100   38.9254 N   0  0  0  0  0  0  0  0  0  0  0  0
   32.0043   32.9438   38.8362 N   0  0  0  0  0  0  0  0  0  0  0  0
   31.6778   33.7114   38.2536 H   0  0  0  0  0  0  0  0  0  0  0  0
   28.7033   31.4364   32.3879 C   0  0  0  0  0  0  0  0  0  0  0  0
   28.7584   30.4681   33.4112 C   0  0  0  0  0  0  0  0  0  0  0  0
   28.1248   29.2212   33.2317 C   0  0  0  0  0  0  0  0  0  0  0  0
   27.5074   28.9228   32.0075 C   0  0  0  0  0  0  0  0  0  0  0  0
   27.0415   27.9596   31.8623 H   0  0  0  0  0  0  0  0  0  0  0  0
   29.2846   30.8208   34.7536 C   0  0  0  0  0  0  0  0  0  0  0  0
   30.9726   30.3207   36.5103 C   0  0  0  0  0  0  0  0  0  0  0  0
   31.4507   29.1952   37.2015 C   0  0  0  0  0  0  0  0  0  0  0  0
   31.3306   28.2028   36.7973 H   0  0  0  0  0  0  0  0  0  0  0  0
   32.1087   29.3937   38.4228 C   0  0  0  0  0  0  0  0  0  0  0  0
   32.4996   28.5535   38.9816 H   0  0  0  0  0  0  0  0  0  0  0  0
   31.8239   31.6908   38.2976 C   0  0  0  0  0  0  0  0  0  0  0  0
   31.1395   31.5946   37.0863 C   0  0  0  0  0  0  0  0  0  0  0  0
   30.7497   32.4800   36.6096 H   0  0  0  0  0  0  0  0  0  0  0  0
   33.3512   34.2160   42.4758 C   0  0  0  0  0  0  0  0  0  0  0  0
   33.7028   34.5794   43.4306 H   0  0  0  0  0  0  0  0  0  0  0  0
   33.3819   32.9036   42.2431 N   0  0  0  0  0  0  0  0  0  0  0  0
   32.9466   32.4421   41.0689 C   0  0  0  0  0  0  0  0  0  0  0  0
   32.9986   31.3741   40.9039 H   0  0  0  0  0  0  0  0  0  0  0  0
   32.4433   33.3247   40.0814 C   0  0  0  0  0  0  0  0  0  0  0  0
   32.4537   34.6322   40.3213 N   0  0  0  0  0  0  0  0  0  0  0  0
   32.8740   35.1026   41.4932 C   0  0  0  0  0  0  0  0  0  0  0  0
   32.8527   36.1695   41.6617 H   0  0  0  0  0  0  0  0  0  0  0  0
  1 15  1  0
  2 13  1  0
  3  4  1  0
  3  8  2  0
  3 16  1  0
  5  6  1  0
  5 18  1  0
  5 19  1  0
  7 18  2  0
  8  9  1  0
  8 13  1  0
 10 22  2  0
 10 24  1  0
 11 12  1  0
 11 24  1  0
 11 32  1  0
 13 14  2  0
 14 15  1  0
 14 18  1  0
 15 16  2  0
 16 17  1  0
 19 20  2  0
 19 25  1  0
 20 21  1  0
 20 22  1  0
 22 23  1  0
 24 25  2  0
 25 26  1  0
 27 28  1  0
 27 29  2  0
 27 34  1  0
 29 30  1  0
 30 31  1  0
 30 32  2  0
 32 33  1  0
 33 34  2  0
 34 35  1  0
M  END
> <intraLJ>
41.741    

> <intraEL>
-10.419   

> <intraDihe>
12.409    

> <interLJ>
0.000     

> <interEJ>
0.000     

> <gridLJ>
-6.197    

> <gridEL>
0.000     

> <totalE>
37.534    

> <LGFE>
-6.197  

> <LE>
-0.258  

> <SMILES>
O=C(Nc1ccnc(Nc2cnccn2)c1)c1c(Cl)cccc1Cl

> <atom.dprop.GFE>
-1.3860 -1.5520 -0.0149 0.0000 -0.4130 0.0000 -0.3930 0.0620 0.0000 -0.5270 -0.8420 0.0000 -0.1373 -0.2084 -0.2710 -0.1740 0.0000 0.0000 -0.0690 0.0810 0.0000 -0.1275 0.0000 -0.0862 -0.0584 0.0000 -0.0656 0.0000 -0.0840 0.0819 0.0000 0.0113 -0.0670 0.0433 0.0000

> <atom.prop.CLASS>
CLBX CLBX BENC NCLA FORN NCLA FORO BENC NCLA IMIN FORN NCLA BENC BENC BENC BENC NCLA NCLA BENC BENC NCLA GEHC NCLA GEHC BENC NCLA GEHC NCLA IMIN GEHC NCLA GEHC IMIN GEHC NCLA

> <cluster_id>
1

> <rmsd_to_cluster_rep>
0.00    

> <ligRMSD>
8.28    

> <ligCOMD>
1.75    

$$$$
tyk2_liang_ejmc_37_100
     RDKit          3D

 35 37  0  0  0  0  0  0  0  0999 V2000
   30.9941   32.2815   38.6862 Cl  0  0  0  0  0  0  0  0  0  0  0  0
   31.2980   32.8048   33.2204 Cl  0  0  0  0  0  0  0  0  0  0  0  0
   32.5147   35.1320   36.2745 C   0  0  0  0  0  0  0  0  0  0  0  0
   33.0265   36.0759   36.3912 H   0  0  0  0  0  0  0  0  0  0  0  0
   29.4191   31.1716   35.1704 N   0  0  0  0  0  0  0  0  0  0  0  0
   28.9838   31.9669   34.7588 H   0  0  0  0  0  0  0  0  0  0  0  0
   31.2448   30.4040   36.3301 O   0  0  0  0  0  0  0  0  0  0  0  0
   32.2543   34.6295   34.9933 C   0  0  0  0  0  0  0  0  0  0  0  0
   32.5723   35.1839   34.1228 H   0  0  0  0  0  0  0  0  0  0  0  0
   27.3723   27.6285   34.3086 N   0  0  0  0  0  0  0  0  0  0  0  0
   28.2406   26.5708   36.2213 N   0  0  0  0  0  0  0  0  0  0  0  0
   28.2381   25.6786   35.7325 H   0  0  0  0  0  0  0  0  0  0  0  0
   31.5859   33.4067   34.8336 C   0  0  0  0  0  0  0  0  0  0  0  0
   31.1625   32.6874   35.9700 C   0  0  0  0  0  0  0  0  0  0  0  0
   31.4643   33.1729   37.2586 C   0  0  0  0  0  0  0  0  0  0  0  0
   32.1200   34.4041   37.4042 C   0  0  0  0  0  0  0  0  0  0  0  0
   32.3319   34.7853   38.3921 H   0  0  0  0  0  0  0  0  0  0  0  0
   30.5987   31.3225   35.8321 C   0  0  0  0  0  0  0  0  0  0  0  0
   28.7295   29.9471   34.9268 C   0  0  0  0  0  0  0  0  0  0  0  0
   27.9240   29.8769   33.7775 C   0  0  0  0  0  0  0  0  0  0  0  0
   27.8335   30.7194   33.1105 H   0  0  0  0  0  0  0  0  0  0  0  0
   27.2546   28.6773   33.5054 C   0  0  0  0  0  0  0  0  0  0  0  0
   26.6298   28.5784   32.6275 H   0  0  0  0  0  0  0  0  0  0  0  0
   28.1201   27.6720   35.4082 C   0  0  0  0  0  0  0  0  0  0  0  0
   28.8040   28.8268   35.7758 C   0  0  0  0  0  0  0  0  0  0  0  0
   29.3758   28.8475   36.6895 H   0  0  0  0  0  0  0  0  0  0  0  0
   28.9009   26.0448   40.2962 N   0  0  0  0  0  0  0  0  0  0  0  0
   28.4135   27.2068   39.8563 C   0  0  0  0  0  0  0  0  0  0  0  0
   28.2020   27.9616   40.6045 H   0  0  0  0  0  0  0  0  0  0  0  0
   28.1510   27.4901   38.5016 C   0  0  0  0  0  0  0  0  0  0  0  0
   27.7215   28.4370   38.2285 H   0  0  0  0  0  0  0  0  0  0  0  0
   28.4598   26.4683   37.5728 C   0  0  0  0  0  0  0  0  0  0  0  0
   28.9302   25.2582   37.9898 N   0  0  0  0  0  0  0  0  0  0  0  0
   29.1467   25.1070   39.3270 C   0  0  0  0  0  0  0  0  0  0  0  0
   29.5330   24.1429   39.6579 H   0  0  0  0  0  0  0  0  0  0  0  0
  1 15  1  0
  2 13  1  0
  3  4  1  0
  3  8  2  0
  3 16  1  0
  5  6  1  0
  5 18  1  0
  5 19  1  0
  7 18  2  0
  8  9  1  0
  8 13  1  0
 10 22  2  0
 10 24  1  0
 11 12  1  0
 11 24  1  0
 11 32  1  0
 13 14  2  0
 14 15  1  0
 14 18  1  0
 15 16  2  0
 16 17  1  0
 19 20  2  0
 19 25  1  0
 20 21  1  0
 20 22  1  0
 22 23  1  0
 24 25  2  0
 25 26  1  0
 27 28  2  0
 27 34  1  0
 28 29  1  0
 28 30  1  0
 30 31  1  0
 30 32  2  0
 32 33  1  0
 33 34  2  0
 34 35  1  0
M  END
> <intraLJ>
43.105    

> <intraEL>
-26.519   

> <intraDihe>
17.459    

> <interLJ>
0.000     

> <interEJ>
0.000     

> <gridLJ>
-8.511    

> <gridEL>
0.000     

> <totalE>
25.535    

> <LGFE>
-8.511  

> <LE>
-0.355  

> <SMILES>
O=C(Nc1ccnc(Nc2ccncn2)c1)c1c(Cl)cccc1Cl

> <atom.dprop.GFE>
-0.2410 -1.5660 0.2460 0.0000 -0.6230 0.0000 -0.5020 0.0610 0.0000 -1.7190 -1.8690 0.0000 0.0077 -0.0982 -0.0631 0.0237 0.0000 0.0000 -0.2911 -0.2254 0.0000 -0.2234 0.0000 -0.3453 -0.2806 0.0000 -0.5800 -0.0110 0.0000 0.2281 0.0000 -0.1702 0.0470 -0.3164 0.0000

> <atom.prop.CLASS>
CLBX CLBX BENC NCLA FORN NCLA FORO BENC NCLA IMIN FORN NCLA BENC BENC BENC BENC NCLA NCLA BENC BENC NCLA GEHC NCLA GEHC BENC NCLA IMIN BENC NCLA BENC NCLA GEHC IMIN GEHC NCLA

> <cluster_id>
1

> <rmsd_to_cluster_rep>
0.00    

> <ligRMSD>
2.94    

> <ligCOMD>
0.92    

$$$$
tyk2_liang_ejmc_38_579
     RDKit          3D

 35 37  0  0  0  0  0  0  0  0999 V2000
   30.9778   32.4017   38.2753 Cl  0  0  0  0  0  0  0  0  0  0  0  0
   31.3355   31.8588   32.8183 Cl  0  0  0  0  0  0  0  0  0  0  0  0
   32.5393   34.7348   35.3747 C   0  0  0  0  0  0  0  0  0  0  0  0
   33.0533   35.6826   35.3113 H   0  0  0  0  0  0  0  0  0  0  0  0
   29.4157   30.6497   35.0439 N   0  0  0  0  0  0  0  0  0  0  0  0
   28.9787   31.3541   34.4922 H   0  0  0  0  0  0  0  0  0  0  0  0
   31.2487   30.1034   36.3098 O   0  0  0  0  0  0  0  0  0  0  0  0
   32.2906   33.9930   34.2125 C   0  0  0  0  0  0  0  0  0  0  0  0
   32.6193   34.3675   33.2545 H   0  0  0  0  0  0  0  0  0  0  0  0
   27.3564   27.0060   34.8754 N   0  0  0  0  0  0  0  0  0  0  0  0
   28.1979   26.3414   36.9689 N   0  0  0  0  0  0  0  0  0  0  0  0
   28.2338   25.3716   36.6638 H   0  0  0  0  0  0  0  0  0  0  0  0
   31.6182   32.7634   34.2857 C   0  0  0  0  0  0  0  0  0  0  0  0
   31.1782   32.2808   35.5353 C   0  0  0  0  0  0  0  0  0  0  0  0
   31.4697   33.0054   36.7095 C   0  0  0  0  0  0  0  0  0  0  0  0
   32.1299   34.2409   36.6204 C   0  0  0  0  0  0  0  0  0  0  0  0
   32.3331   34.8065   37.5175 H   0  0  0  0  0  0  0  0  0  0  0  0
   30.6021   30.9177   35.6563 C   0  0  0  0  0  0  0  0  0  0  0  0
   28.7272   29.3987   35.0360 C   0  0  0  0  0  0  0  0  0  0  0  0
   27.9223   29.1105   33.9211 C   0  0  0  0  0  0  0  0  0  0  0  0
   27.8349   29.8089   33.1041 H   0  0  0  0  0  0  0  0  0  0  0  0
   27.2472   27.8833   33.8856 C   0  0  0  0  0  0  0  0  0  0  0  0
   26.6228   27.6210   33.0415 H   0  0  0  0  0  0  0  0  0  0  0  0
   28.1026   27.2596   35.9486 C   0  0  0  0  0  0  0  0  0  0  0  0
   28.7967   28.4609   36.0844 C   0  0  0  0  0  0  0  0  0  0  0  0
   29.3679   28.6572   36.9776 H   0  0  0  0  0  0  0  0  0  0  0  0
   28.9913   26.6144   40.9997 C   0  0  0  0  0  0  0  0  0  0  0  0
   29.2267   26.6117   42.0547 H   0  0  0  0  0  0  0  0  0  0  0  0
   28.4154   27.7465   40.3939 C   0  0  0  0  0  0  0  0  0  0  0  0
   28.1951   28.6265   40.9777 H   0  0  0  0  0  0  0  0  0  0  0  0
   28.1261   27.7073   39.0152 C   0  0  0  0  0  0  0  0  0  0  0  0
   27.6619   28.5556   38.5410 H   0  0  0  0  0  0  0  0  0  0  0  0
   28.4556   26.5262   38.3072 C   0  0  0  0  0  0  0  0  0  0  0  0
   28.9733   25.4521   38.9794 N   0  0  0  0  0  0  0  0  0  0  0  0
   29.2544   25.5149   40.2953 N   0  0  0  0  0  0  0  0  0  0  0  0
  1 15  1  0
  2 13  1  0
  3  4  1  0
  3  8  2  0
  3 16  1  0
  5  6  1  0
  5 18  1  0
  5 19  1  0
  7 18  2  0
  8  9  1  0
  8 13  1  0
 10 22  2  0
 10 24  1  0
 11 12  1  0
 11 24  1  0
 11 33  1  0
 13 14  2  0
 14 15  1  0
 14 18  1  0
 15 16  2  0
 16 17  1  0
 19 20  2  0
 19 25  1  0
 20 21  1  0
 20 22  1  0
 22 23  1  0
 24 25  2  0
 25 26  1  0
 27 28  1  0
 27 29  2  0
 27 35  1  0
 29 30  1  0
 29 31  1  0
 31 32  1  0
 31 33  2  0
 33 34  1  0
 34 35  2  0
M  END
> <intraLJ>
41.867    

> <intraEL>
-14.418   

> <intraDihe>
13.975    

> <interLJ>
0.000     

> <interEJ>
0.000     

> <gridLJ>
-9.423    

> <gridEL>
0.000     

> <totalE>
32.002    

> <LGFE>
-9.423  

> <LE>
-0.393  

> <SMILES>
O=C(Nc1ccnc(Nc2cccnn2)c1)c1c(Cl)cccc1Cl

> <atom.dprop.GFE>
-0.2410 -0.8820 0.0620 0.0000 -0.4130 0.0000 -0.5020 0.2460 0.0000 -1.7190 -1.8690 0.0000 -0.0922 -0.0982 0.0065 0.0307 0.0000 0.0000 -0.2806 -0.2710 0.0000 -0.2234 0.0000 -0.3453 -0.2735 0.0000 -0.0362 0.0000 0.0048 0.0000 0.2961 0.0000 -0.3240 -1.2400 -1.2590

> <atom.prop.CLASS>
CLBX CLBX BENC NCLA FORN NCLA FORO BENC NCLA IMIN FORN NCLA BENC BENC BENC BENC NCLA NCLA BENC BENC NCLA GEHC NCLA GEHC BENC NCLA BENC NCLA BENC NCLA BENC NCLA GEHC IMIN IMIN

> <cluster_id>
1

> <rmsd_to_cluster_rep>
0.00    

> <ligRMSD>
3.46    

> <ligCOMD>
1.13    

$$$$
tyk2_liang_ejmc_39_38
     RDKit          3D

 40 42  0  0  0  0  0  0  0  0999 V2000
   30.6649   34.2066   38.0489 Cl  0  0  0  0  0  0  0  0  0  0  0  0
   30.5284   33.2792   32.6254 Cl  0  0  0  0  0  0  0  0  0  0  0  0
   31.0647   36.6003   34.8351 C   0  0  0  0  0  0  0  0  0  0  0  0
   31.2485   37.6484   34.6500 H   0  0  0  0  0  0  0  0  0  0  0  0
   29.4012   31.7409   35.1120 N   0  0  0  0  0  0  0  0  0  0  0  0
   28.7402   32.2050   34.5297 H   0  0  0  0  0  0  0  0  0  0  0  0
   31.3822   31.9142   36.2481 O   0  0  0  0  0  0  0  0  0  0  0  0
   30.9187   35.7139   33.7609 C   0  0  0  0  0  0  0  0  0  0  0  0
   30.9980   36.0787   32.7475 H   0  0  0  0  0  0  0  0  0  0  0  0
   28.3740   27.7509   35.8262 N   0  0  0  0  0  0  0  0  0  0  0  0
   29.3892   27.7796   37.9566 N   0  0  0  0  0  0  0  0  0  0  0  0
   30.0476   28.2901   38.5419 H   0  0  0  0  0  0  0  0  0  0  0  0
   30.6765   34.3525   33.9932 C   0  0  0  0  0  0  0  0  0  0  0  0
   30.5678   33.8762   35.3157 C   0  0  0  0  0  0  0  0  0  0  0  0
   30.7537   34.7638   36.3957 C   0  0  0  0  0  0  0  0  0  0  0  0
   30.9809   36.1248   36.1494 C   0  0  0  0  0  0  0  0  0  0  0  0
   31.1041   36.8063   36.9780 H   0  0  0  0  0  0  0  0  0  0  0  0
   30.4767   32.4216   35.5901 C   0  0  0  0  0  0  0  0  0  0  0  0
   29.0762   30.3811   35.3932 C   0  0  0  0  0  0  0  0  0  0  0  0
   28.3598   29.6676   34.4189 C   0  0  0  0  0  0  0  0  0  0  0  0
   28.0810   30.1288   33.4849 H   0  0  0  0  0  0  0  0  0  0  0  0
   28.0307   28.3323   34.6830 C   0  0  0  0  0  0  0  0  0  0  0  0
   27.4849   27.7436   33.9575 H   0  0  0  0  0  0  0  0  0  0  0  0
   29.0469   28.4051   36.7739 C   0  0  0  0  0  0  0  0  0  0  0  0
   29.4064   29.7420   36.6051 C   0  0  0  0  0  0  0  0  0  0  0  0
   29.9176   30.2707   37.3939 H   0  0  0  0  0  0  0  0  0  0  0  0
   27.5319   24.8390   38.9790 N   0  0  0  0  0  0  0  0  0  0  0  0
   27.6830   25.8617   38.1596 C   0  0  0  0  0  0  0  0  0  0  0  0
   27.0049   26.0586   37.3385 H   0  0  0  0  0  0  0  0  0  0  0  0
   28.8133   26.6408   38.4886 C   0  0  0  0  0  0  0  0  0  0  0  0
   29.3733   26.0489   39.5668 C   0  0  0  0  0  0  0  0  0  0  0  0
   30.2520   26.3058   40.1412 H   0  0  0  0  0  0  0  0  0  0  0  0
   28.5720   24.9706   39.8303 N   0  0  0  0  0  0  0  0  0  0  0  0
   28.7556   24.0118   40.9117 C   0  0  0  0  0  0  0  0  0  0  0  0
   27.7548   23.7284   41.3114 H   0  0  0  0  0  0  0  0  0  0  0  0
   29.3030   24.5226   41.7356 H   0  0  0  0  0  0  0  0  0  0  0  0
   29.5036   22.7210   40.5588 C   0  0  0  0  0  0  0  0  0  0  0  0
   30.5366   22.9493   40.2175 H   0  0  0  0  0  0  0  0  0  0  0  0
   29.5686   22.0555   41.4450 H   0  0  0  0  0  0  0  0  0  0  0  0
   28.9756   22.1753   39.7471 H   0  0  0  0  0  0  0  0  0  0  0  0
  1 15  1  0
  2 13  1  0
  3  4  1  0
  3  8  2  0
  3 16  1  0
  5  6  1  0
  5 18  1  0
  5 19  1  0
  7 18  2  0
  8  9  1  0
  8 13  1  0
 10 22  2  0
 10 24  1  0
 11 12  1  0
 11 24  1  0
 11 30  1  0
 13 14  2  0
 14 15  1  0
 14 18  1  0
 15 16  2  0
 16 17  1  0
 19 20  2  0
 19 25  1  0
 20 21  1  0
 20 22  1  0
 22 23  1  0
 24 25  2  0
 25 26  1  0
 27 28  2  0
 27 33  1  0
 28 29  1  0
 28 30  1  0
 30 31  2  0
 31 32  1  0
 31 33  1  0
 33 34  1  0
 34 35  1  0
 34 36  1  0
 34 37  1  0
 37 38  1  0
 37 39  1  0
 37 40  1  0
M  END
> <intraLJ>
25.993    

> <intraEL>
-12.535   

> <intraDihe>
12.816    

> <interLJ>
0.000     

> <interEJ>
0.000     

> <gridLJ>
-6.211    

> <gridEL>
0.000     

> <totalE>
20.064    

> <LGFE>
-6.211  

> <LE>
-0.248  

> <SMILES>
CCn1cc(Nc2cc(NC(=O)c3c(Cl)cccc3Cl)ccn2)cn1

> <atom.dprop.GFE>
-0.5610 -1.7850 0.7420 0.0000 -0.6230 0.0000 -0.5650 0.3749 0.0000 0.0470 -0.8690 0.0000 0.1495 0.1254 0.0514 0.4410 0.0000 0.0000 -0.3086 -0.2919 0.0000 -0.2458 0.0000 -0.0932 -0.2276 0.0000 -1.2050 -0.0460 0.0000 -0.3240 -0.3387 0.0000 -0.3164 -0.1968 0.0000 0.0000 -0.1452 0.0000 0.0000 0.0000

> <atom.prop.CLASS>
CLBX CLBX BENC NCLA FORN NCLA FORO BENC NCLA IMIN FORN NCLA BENC BENC BENC BENC NCLA NCLA BENC BENC NCLA GEHC NCLA GEHC BENC NCLA IMIN GEHC NCLA GEHC GEHC NCLA GEHC PRPC NCLA NCLA PRPC NCLA NCLA NCLA

> <cluster_id>
1

> <rmsd_to_cluster_rep>
0.00    

> <ligRMSD>
3.67    

> <ligCOMD>
1.27    

$$$$
tyk2_liang_ejmc_40_1213
     RDKit          3D

 29 31  0  0  0  0  0  0  0  0999 V2000
   31.3791   32.0870   38.6033 Cl  0  0  0  0  0  0  0  0  0  0  0  0
   31.1503   33.0224   33.2076 Cl  0  0  0  0  0  0  0  0  0  0  0  0
   32.5756   35.1725   36.2841 C   0  0  0  0  0  0  0  0  0  0  0  0
   33.0654   36.1254   36.4206 H   0  0  0  0  0  0  0  0  0  0  0  0
   29.4510   31.1655   35.3076 N   0  0  0  0  0  0  0  0  0  0  0  0
   28.9083   31.9509   35.0228 H   0  0  0  0  0  0  0  0  0  0  0  0
   31.4843   30.3941   35.9928 O   0  0  0  0  0  0  0  0  0  0  0  0
   32.2092   34.7507   35.0013 C   0  0  0  0  0  0  0  0  0  0  0  0
   32.4226   35.3743   34.1457 H   0  0  0  0  0  0  0  0  0  0  0  0
   27.3645   27.4780   34.7528 N   0  0  0  0  0  0  0  0  0  0  0  0
   31.5694   33.5173   34.8216 C   0  0  0  0  0  0  0  0  0  0  0  0
   31.2726   32.7019   35.9303 C   0  0  0  0  0  0  0  0  0  0  0  0
   31.6857   33.1059   37.2163 C   0  0  0  0  0  0  0  0  0  0  0  0
   32.3153   34.3505   37.3894 C   0  0  0  0  0  0  0  0  0  0  0  0
   32.6101   34.6695   38.3778 H   0  0  0  0  0  0  0  0  0  0  0  0
   30.7296   31.3286   35.7402 C   0  0  0  0  0  0  0  0  0  0  0  0
   28.7953   29.9019   35.1807 C   0  0  0  0  0  0  0  0  0  0  0  0
   27.9796   29.7088   34.0524 C   0  0  0  0  0  0  0  0  0  0  0  0
   27.8822   30.4836   33.3079 H   0  0  0  0  0  0  0  0  0  0  0  0
   27.3042   28.4862   33.8896 C   0  0  0  0  0  0  0  0  0  0  0  0
   26.6841   28.3391   33.0131 H   0  0  0  0  0  0  0  0  0  0  0  0
   28.1555   27.6977   35.8516 C   0  0  0  0  0  0  0  0  0  0  0  0
   28.8753   28.8633   36.1142 C   0  0  0  0  0  0  0  0  0  0  0  0
   29.5359   28.6885   37.3759 C   0  0  0  0  0  0  0  0  0  0  0  0
   30.1659   29.4043   37.8812 H   0  0  0  0  0  0  0  0  0  0  0  0
   29.2225   27.4396   37.8325 C   0  0  0  0  0  0  0  0  0  0  0  0
   29.5318   26.9443   38.7438 H   0  0  0  0  0  0  0  0  0  0  0  0
   28.3841   26.8515   36.9025 N   0  0  0  0  0  0  0  0  0  0  0  0
   27.9844   25.9269   36.9759 H   0  0  0  0  0  0  0  0  0  0  0  0
  1 13  1  0
  2 11  1  0
  3  4  1  0
  3  8  2  0
  3 14  1  0
  5  6  1  0
  5 16  1  0
  5 17  1  0
  7 16  2  0
  8  9  1  0
  8 11  1  0
 10 20  2  0
 10 22  1  0
 11 12  2  0
 12 13  1  0
 12 16  1  0
 13 14  2  0
 14 15  1  0
 17 18  2  0
 17 23  1  0
 18 19  1  0
 18 20  1  0
 20 21  1  0
 22 23  2  0
 22 28  1  0
 23 24  1  0
 24 25  1  0
 24 26  2  0
 26 27  1  0
 26 28  1  0
 28 29  1  0
M  END
> <intraLJ>
19.576    

> <intraEL>
-3.130    

> <intraDihe>
10.484    

> <interLJ>
0.000     

> <interEJ>
0.000     

> <gridLJ>
-6.489    

> <gridEL>
0.000     

> <totalE>
20.441    

> <LGFE>
-6.489  

> <LE>
-0.324  

> <SMILES>
O=C(Nc1ccnc2[nH]ccc12)c1c(Cl)cccc1Cl

> <atom.dprop.GFE>
-0.2410 -1.5660 0.2460 0.0000 -0.6230 0.0000 -0.2060 0.0610 0.0000 -1.7190 0.0077 -0.0982 -0.0631 0.0237 0.0000 0.0000 -0.3086 -0.2919 0.0000 -0.2234 0.0000 -0.3453 0.0463 -0.1309 0.0000 -0.1572 0.0000 -0.9000 0.0000

> <atom.prop.CLASS>
CLBX CLBX BENC NCLA FORN NCLA FORO BENC NCLA IMIN BENC BENC BENC BENC NCLA NCLA BENC BENC NCLA GEHC NCLA GEHC GEHC GEHC NCLA GEHC NCLA IMIH NCLA

> <cluster_id>
1

> <rmsd_to_cluster_rep>
0.00    

> <ligRMSD>
1.93    

> <ligCOMD>
0.98    

$$$$
tyk2_liang_ejmc_41_4gfo_174
     RDKit          3D

 26 27  0  0  0  0  0  0  0  0999 V2000
   32.4118   31.0227   38.7604 Cl  0  0  0  0  0  0  0  0  0  0  0  0
   30.9672   33.1882   33.9201 Cl  0  0  0  0  0  0  0  0  0  0  0  0
   33.2209   34.5538   36.9742 C   0  0  0  0  0  0  0  0  0  0  0  0
   33.7869   35.4454   37.2006 H   0  0  0  0  0  0  0  0  0  0  0  0
   29.7432   30.9660   35.8318 N   0  0  0  0  0  0  0  0  0  0  0  0
   29.2342   31.8209   35.8774 H   0  0  0  0  0  0  0  0  0  0  0  0
   31.8196   29.9903   36.0135 O   0  0  0  0  0  0  0  0  0  0  0  0
   32.5393   34.4482   35.7540 C   0  0  0  0  0  0  0  0  0  0  0  0
   32.5861   35.2563   35.0393 H   0  0  0  0  0  0  0  0  0  0  0  0
   27.3755   27.6148   34.8832 N   0  0  0  0  0  0  0  0  0  0  0  0
   26.3876   28.7531   33.0555 O   0  0  0  0  0  0  0  0  0  0  0  0
   26.4704   29.6181   32.6496 H   0  0  0  0  0  0  0  0  0  0  0  0
   31.7979   33.2961   35.4541 C   0  0  0  0  0  0  0  0  0  0  0  0
   31.7322   32.2521   36.3972 C   0  0  0  0  0  0  0  0  0  0  0  0
   32.4501   32.3361   37.6047 C   0  0  0  0  0  0  0  0  0  0  0  0
   33.1761   33.4995   37.8968 C   0  0  0  0  0  0  0  0  0  0  0  0
   33.7114   33.5774   38.8313 H   0  0  0  0  0  0  0  0  0  0  0  0
   31.0842   30.9724   36.0576 C   0  0  0  0  0  0  0  0  0  0  0  0
   28.9549   29.8405   35.4531 C   0  0  0  0  0  0  0  0  0  0  0  0
   29.0391   28.6798   36.2432 C   0  0  0  0  0  0  0  0  0  0  0  0
   29.7007   28.6329   37.0932 H   0  0  0  0  0  0  0  0  0  0  0  0
   28.2240   27.5833   35.9095 C   0  0  0  0  0  0  0  0  0  0  0  0
   28.2605   26.6779   36.5010 H   0  0  0  0  0  0  0  0  0  0  0  0
   27.2934   28.7016   34.1275 C   0  0  0  0  0  0  0  0  0  0  0  0
   28.0767   29.8314   34.3563 C   0  0  0  0  0  0  0  0  0  0  0  0
   27.9789   30.6589   33.6769 H   0  0  0  0  0  0  0  0  0  0  0  0
  1 15  1  0
  2 13  1  0
  3  4  1  0
  3  8  2  0
  3 16  1  0
  5  6  1  0
  5 18  1  0
  5 19  1  0
  7 18  2  0
  8  9  1  0
  8 13  1  0
 10 22  2  0
 10 24  1  0
 11 12  1  0
 11 24  1  0
 13 14  2  0
 14 15  1  0
 14 18  1  0
 15 16  2  0
 16 17  1  0
 19 20  2  0
 19 25  1  0
 20 21  1  0
 20 22  1  0
 22 23  1  0
 24 25  2  0
 25 26  1  0
M  END
> <intraLJ>
23.175    

> <intraEL>
-10.259   

> <intraDihe>
11.069    

> <interLJ>
0.000     

> <interEJ>
0.000     

> <gridLJ>
-6.587    

> <gridEL>
0.000     

> <totalE>
17.398    

> <LGFE>
-6.587  

> <LE>
-0.366  

> <SMILES>
O=C(Nc1ccnc(O)c1)c1c(Cl)cccc1Cl

> <atom.dprop.GFE>
-0.1130 -1.5660 0.0514 0.0000 -0.6230 0.0000 -0.2060 0.0620 0.0000 -1.7190 -1.2120 0.0000 0.0132 0.0301 -0.0377 -0.0028 0.0000 0.0000 -0.3086 -0.2735 0.0000 -0.3453 0.0000 -0.1122 -0.2248 0.0000

> <atom.prop.CLASS>
CLBX CLBX BENC NCLA FORN NCLA FORO BENC NCLA IMIN MEOO NCLA BENC BENC BENC BENC NCLA NCLA BENC BENC NCLA GEHC NCLA GEHC BENC NCLA

> <cluster_id>
1

> <rmsd_to_cluster_rep>
0.00    

> <ligRMSD>
2.18    

> <ligCOMD>
1.06    

$$$$
tyk2_liang_ejmc_42_1052
     RDKit          3D

 35 36  0  0  0  0  0  0  0  0999 V2000
   30.9931   32.7855   38.4376 Cl  0  0  0  0  0  0  0  0  0  0  0  0
   31.2099   32.7721   32.9540 Cl  0  0  0  0  0  0  0  0  0  0  0  0
   32.5219   35.3630   35.7379 C   0  0  0  0  0  0  0  0  0  0  0  0
   33.0517   36.3041   35.7533 H   0  0  0  0  0  0  0  0  0  0  0  0
   29.3866   31.3397   34.9947 N   0  0  0  0  0  0  0  0  0  0  0  0
   28.9921   32.0618   34.4336 H   0  0  0  0  0  0  0  0  0  0  0  0
   31.1217   30.6980   36.3418 O   0  0  0  0  0  0  0  0  0  0  0  0
   32.2305   34.7425   34.5170 C   0  0  0  0  0  0  0  0  0  0  0  0
   32.5422   35.2018   33.5907 H   0  0  0  0  0  0  0  0  0  0  0  0
   27.3224   27.6915   34.7864 N   0  0  0  0  0  0  0  0  0  0  0  0
   31.5384   33.5235   34.4915 C   0  0  0  0  0  0  0  0  0  0  0  0
   31.1205   32.9255   35.6961 C   0  0  0  0  0  0  0  0  0  0  0  0
   31.4549   33.5281   36.9254 C   0  0  0  0  0  0  0  0  0  0  0  0
   32.1346   34.7558   36.9396 C   0  0  0  0  0  0  0  0  0  0  0  0
   32.3705   35.2273   37.8819 H   0  0  0  0  0  0  0  0  0  0  0  0
   30.5321   31.5622   35.6966 C   0  0  0  0  0  0  0  0  0  0  0  0
   28.6790   30.1012   34.9589 C   0  0  0  0  0  0  0  0  0  0  0  0
   28.0229   29.7365   33.7722 C   0  0  0  0  0  0  0  0  0  0  0  0
   28.0458   30.3762   32.9046 H   0  0  0  0  0  0  0  0  0  0  0  0
   27.3489   28.5057   33.7373 C   0  0  0  0  0  0  0  0  0  0  0  0
   26.8257   28.1925   32.8432 H   0  0  0  0  0  0  0  0  0  0  0  0
   27.9638   28.0120   35.9080 C   0  0  0  0  0  0  0  0  0  0  0  0
   27.8814   27.0644   36.9568 N   0  0  0  0  0  0  0  0  0  0  0  0
   28.8684   26.5545   37.7247 C   0  0  0  0  0  0  0  0  0  0  0  0
   30.3180   26.8689   37.4344 C   0  0  0  0  0  0  0  0  0  0  0  0
   30.9215   25.9367   37.4005 H   0  0  0  0  0  0  0  0  0  0  0  0
   30.8994   27.7749   38.5316 C   0  0  0  0  0  0  0  0  0  0  0  0
   31.9702   27.9845   38.3218 H   0  0  0  0  0  0  0  0  0  0  0  0
   30.8321   27.2840   39.5264 H   0  0  0  0  0  0  0  0  0  0  0  0
   30.3618   28.7464   38.5757 H   0  0  0  0  0  0  0  0  0  0  0  0
   30.3949   27.3814   36.4510 H   0  0  0  0  0  0  0  0  0  0  0  0
   26.9507   26.7473   37.1090 H   0  0  0  0  0  0  0  0  0  0  0  0
   28.6031   29.2412   36.0699 C   0  0  0  0  0  0  0  0  0  0  0  0
   29.0368   29.5139   37.0172 H   0  0  0  0  0  0  0  0  0  0  0  0
   28.5669   25.8093   38.6504 O   0  0  0  0  0  0  0  0  0  0  0  0
  1 13  1  0
  2 11  1  0
  3  4  1  0
  3  8  2  0
  3 14  1  0
  5  6  1  0
  5 16  1  0
  5 17  1  0
  7 16  2  0
  8  9  1  0
  8 11  1  0
 10 20  2  0
 10 22  1  0
 11 12  2  0
 12 13  1  0
 12 16  1  0
 13 14  2  0
 14 15  1  0
 17 18  2  0
 17 33  1  0
 18 19  1  0
 18 20  1  0
 20 21  1  0
 22 23  1  0
 22 33  2  0
 23 24  1  0
 23 32  1  0
 24 25  1  0
 24 35  2  0
 25 26  1  0
 25 27  1  0
 25 31  1  0
 27 28  1  0
 27 29  1  0
 27 30  1  0
 33 34  1  0
M  END
> <intraLJ>
25.034    

> <intraEL>
-15.702   

> <intraDihe>
20.112    

> <interLJ>
0.000     

> <interEJ>
0.000     

> <gridLJ>
-8.159    

> <gridEL>
0.000     

> <totalE>
21.286    

> <LGFE>
-8.159  

> <LE>
-0.371  

> <SMILES>
CCC(=O)Nc1cc(NC(=O)c2c(Cl)cccc2Cl)ccn1

> <atom.dprop.GFE>
-0.5900 -1.7850 0.2961 0.0000 -0.6230 0.0000 -0.5020 0.2460 0.0000 -1.7190 0.0077 0.0222 0.0065 0.0307 0.0000 0.0000 -0.2911 -0.2710 0.0000 -0.2234 0.0000 -0.1675 -1.4000 0.0000 -0.0470 0.0000 0.0470 0.0000 0.0000 0.0000 0.0000 0.0000 -0.2430 0.0000 -0.9530

> <atom.prop.CLASS>
CLBX CLBX BENC NCLA FORN NCLA FORO BENC NCLA IMIN BENC BENC BENC BENC NCLA NCLA BENC BENC NCLA GEHC NCLA GEHC FORN NCLA PRPC NCLA PRPC NCLA NCLA NCLA NCLA NCLA BENC NCLA FORO

> <cluster_id>
1

> <rmsd_to_cluster_rep>
0.00    

> <ligRMSD>
1.81    

> <ligCOMD>
0.55    

$$$$
tyk2_liang_ejmc_43_956
     RDKit          3D

 38 39  0  0  0  0  0  0  0  0999 V2000
   31.1430   32.8019   38.0207 Cl  0  0  0  0  0  0  0  0  0  0  0  0
   31.2322   32.7757   32.5312 Cl  0  0  0  0  0  0  0  0  0  0  0  0
   32.6890   35.3242   35.2817 C   0  0  0  0  0  0  0  0  0  0  0  0
   33.2495   36.2475   35.2837 H   0  0  0  0  0  0  0  0  0  0  0  0
   29.4630   31.3710   34.5488 N   0  0  0  0  0  0  0  0  0  0  0  0
   29.1143   32.0784   33.9406 H   0  0  0  0  0  0  0  0  0  0  0  0
   31.1138   30.7293   35.9946 O   0  0  0  0  0  0  0  0  0  0  0  0
   32.3491   34.7131   34.0687 C   0  0  0  0  0  0  0  0  0  0  0  0
   32.6543   35.1615   33.1349 H   0  0  0  0  0  0  0  0  0  0  0  0
   27.3174   27.7644   34.4790 N   0  0  0  0  0  0  0  0  0  0  0  0
   31.6176   33.5171   34.0605 C   0  0  0  0  0  0  0  0  0  0  0  0
   31.2086   32.9334   35.2753 C   0  0  0  0  0  0  0  0  0  0  0  0
   31.5913   33.5259   36.4957 C   0  0  0  0  0  0  0  0  0  0  0  0
   32.3104   34.7305   36.4926 C   0  0  0  0  0  0  0  0  0  0  0  0
   32.5836   35.1943   37.4287 H   0  0  0  0  0  0  0  0  0  0  0  0
   30.5821   31.5875   35.2932 C   0  0  0  0  0  0  0  0  0  0  0  0
   28.7130   30.1575   34.5541 C   0  0  0  0  0  0  0  0  0  0  0  0
   28.3094   29.6080   33.3267 C   0  0  0  0  0  0  0  0  0  0  0  0
   28.5485   30.0929   32.3939 H   0  0  0  0  0  0  0  0  0  0  0  0
   27.6029   28.3945   33.3442 C   0  0  0  0  0  0  0  0  0  0  0  0
   27.2685   27.9424   32.4195 H   0  0  0  0  0  0  0  0  0  0  0  0
   27.7223   28.2612   35.6457 C   0  0  0  0  0  0  0  0  0  0  0  0
   27.3869   27.5235   36.8054 N   0  0  0  0  0  0  0  0  0  0  0  0
   28.1826   27.1846   37.8467 C   0  0  0  0  0  0  0  0  0  0  0  0
   29.6675   27.5288   37.8641 C   0  0  0  0  0  0  0  0  0  0  0  0
   30.3812   26.7677   36.7271 C   0  0  0  0  0  0  0  0  0  0  0  0
   31.4672   27.0013   36.7405 H   0  0  0  0  0  0  0  0  0  0  0  0
   29.9767   27.0572   35.7342 H   0  0  0  0  0  0  0  0  0  0  0  0
   30.2625   25.6703   36.8554 H   0  0  0  0  0  0  0  0  0  0  0  0
   30.2794   27.1717   39.2385 C   0  0  0  0  0  0  0  0  0  0  0  0
   31.3564   27.4442   39.2519 H   0  0  0  0  0  0  0  0  0  0  0  0
   30.1990   26.0820   39.4381 H   0  0  0  0  0  0  0  0  0  0  0  0
   29.7715   27.7260   40.0560 H   0  0  0  0  0  0  0  0  0  0  0  0
   29.8251   28.6165   37.7181 H   0  0  0  0  0  0  0  0  0  0  0  0
   26.4532   27.1804   36.7890 H   0  0  0  0  0  0  0  0  0  0  0  0
   28.3588   29.4968   35.7453 C   0  0  0  0  0  0  0  0  0  0  0  0
   28.5994   29.9099   36.7115 H   0  0  0  0  0  0  0  0  0  0  0  0
   27.6855   26.5560   38.7752 O   0  0  0  0  0  0  0  0  0  0  0  0
  1 13  1  0
  2 11  1  0
  3  4  1  0
  3  8  2  0
  3 14  1  0
  5  6  1  0
  5 16  1  0
  5 17  1  0
  7 16  2  0
  8  9  1  0
  8 11  1  0
 10 20  2  0
 10 22  1  0
 11 12  2  0
 12 13  1  0
 12 16  1  0
 13 14  2  0
 14 15  1  0
 17 18  2  0
 17 36  1  0
 18 19  1  0
 18 20  1  0
 20 21  1  0
 22 23  1  0
 22 36  2  0
 23 24  1  0
 23 35  1  0
 24 25  1  0
 24 38  2  0
 25 26  1  0
 25 30  1  0
 25 34  1  0
 26 27  1  0
 26 28  1  0
 26 29  1  0
 30 31  1  0
 30 32  1  0
 30 33  1  0
 36 37  1  0
M  END
> <intraLJ>
26.149    

> <intraEL>
-13.976   

> <intraDihe>
24.218    

> <interLJ>
0.000     

> <interEJ>
0.000     

> <gridLJ>
-7.217    

> <gridEL>
0.000     

> <totalE>
29.174    

> <LGFE>
-7.217  

> <LE>
-0.314  

> <SMILES>
CC(C)C(=O)Nc1cc(NC(=O)c2c(Cl)cccc2Cl)ccn1

> <atom.dprop.GFE>
-0.5900 -1.7850 0.2961 0.0000 -0.3730 0.0000 -0.5020 0.2460 0.0000 -1.7190 0.0077 0.0222 0.0065 0.0307 0.0000 0.0000 -0.2911 -0.2710 0.0000 -0.1935 0.0000 -0.1675 -1.4000 0.0000 -0.0470 -0.1152 0.0000 0.0000 0.0000 0.2191 0.0000 0.0000 0.0000 0.0000 0.0000 -0.2179 0.0000 -0.3730

> <atom.prop.CLASS>
CLBX CLBX BENC NCLA FORN NCLA FORO BENC NCLA IMIN BENC BENC BENC BENC NCLA NCLA BENC BENC NCLA GEHC NCLA GEHC FORN NCLA PRPC PRPC NCLA NCLA NCLA PRPC NCLA NCLA NCLA NCLA NCLA BENC NCLA FORO

> <cluster_id>
1

> <rmsd_to_cluster_rep>
0.00    

> <ligRMSD>
1.72    

> <ligCOMD>
0.64    

$$$$
tyk2_liang_ejmc_44_794
     RDKit          3D

 41 42  0  0  0  0  0  0  0  0999 V2000
   29.6761   28.3585   40.3697 Cl  0  0  0  0  0  0  0  0  0  0  0  0
   28.3723   27.2046   35.1629 Cl  0  0  0  0  0  0  0  0  0  0  0  0
   27.4033   25.4934   38.6722 C   0  0  0  0  0  0  0  0  0  0  0  0
   26.8001   24.6615   39.0047 H   0  0  0  0  0  0  0  0  0  0  0  0
   31.0212   29.0113   37.6580 N   0  0  0  0  0  0  0  0  0  0  0  0
   31.5249   28.2537   38.0632 H   0  0  0  0  0  0  0  0  0  0  0  0
   29.0302   29.7366   36.7996 O   0  0  0  0  0  0  0  0  0  0  0  0
   27.5036   25.7850   37.3064 C   0  0  0  0  0  0  0  0  0  0  0  0
   26.9714   25.1818   36.5859 H   0  0  0  0  0  0  0  0  0  0  0  0
   33.3787   32.4351   37.0516 N   0  0  0  0  0  0  0  0  0  0  0  0
   28.2890   26.8609   36.8692 C   0  0  0  0  0  0  0  0  0  0  0  0
   28.9923   27.6451   37.8041 C   0  0  0  0  0  0  0  0  0  0  0  0
   28.8548   27.3768   39.1810 C   0  0  0  0  0  0  0  0  0  0  0  0
   28.0783   26.2888   39.6071 C   0  0  0  0  0  0  0  0  0  0  0  0
   27.9913   26.0722   40.6613 H   0  0  0  0  0  0  0  0  0  0  0  0
   29.6959   28.8816   37.3788 C   0  0  0  0  0  0  0  0  0  0  0  0
   31.7911   30.1956   37.4569 C   0  0  0  0  0  0  0  0  0  0  0  0
   33.1675   30.0598   37.2097 C   0  0  0  0  0  0  0  0  0  0  0  0
   33.6307   29.0874   37.1623 H   0  0  0  0  0  0  0  0  0  0  0  0
   33.9248   31.2248   37.0086 C   0  0  0  0  0  0  0  0  0  0  0  0
   34.9884   31.1596   36.8189 H   0  0  0  0  0  0  0  0  0  0  0  0
   32.0722   32.5705   37.2672 C   0  0  0  0  0  0  0  0  0  0  0  0
   31.5438   33.8783   37.2948 N   0  0  0  0  0  0  0  0  0  0  0  0
   30.9144   34.5814   36.3203 C   0  0  0  0  0  0  0  0  0  0  0  0
   30.6564   34.0537   34.8855 C   0  0  0  0  0  0  0  0  0  0  0  0
   31.9120   33.4476   34.2070 C   0  0  0  0  0  0  0  0  0  0  0  0
   31.7176   33.3114   33.1216 H   0  0  0  0  0  0  0  0  0  0  0  0
   32.1591   32.4489   34.6170 H   0  0  0  0  0  0  0  0  0  0  0  0
   32.7890   34.1188   34.3192 H   0  0  0  0  0  0  0  0  0  0  0  0
   30.2108   35.2698   34.0336 C   0  0  0  0  0  0  0  0  0  0  0  0
   30.0140   34.9435   32.9901 H   0  0  0  0  0  0  0  0  0  0  0  0
   31.0029   36.0479   34.0056 H   0  0  0  0  0  0  0  0  0  0  0  0
   29.2748   35.7193   34.4272 H   0  0  0  0  0  0  0  0  0  0  0  0
   29.5042   33.0220   34.8995 C   0  0  0  0  0  0  0  0  0  0  0  0
   29.2329   32.7518   33.8564 H   0  0  0  0  0  0  0  0  0  0  0  0
   28.6011   33.4400   35.3924 H   0  0  0  0  0  0  0  0  0  0  0  0
   29.7984   32.0914   35.4204 H   0  0  0  0  0  0  0  0  0  0  0  0
   31.7125   34.3362   38.1619 H   0  0  0  0  0  0  0  0  0  0  0  0
   31.2360   31.4877   37.5285 C   0  0  0  0  0  0  0  0  0  0  0  0
   30.1967   31.6493   37.7631 H   0  0  0  0  0  0  0  0  0  0  0  0
   30.5405   35.7109   36.6252 O   0  0  0  0  0  0  0  0  0  0  0  0
  1 13  1  0
  2 11  1  0
  3  4  1  0
  3  8  2  0
  3 14  1  0
  5  6  1  0
  5 16  1  0
  5 17  1  0
  7 16  2  0
  8  9  1  0
  8 11  1  0
 10 20  2  0
 10 22  1  0
 11 12  2  0
 12 13  1  0
 12 16  1  0
 13 14  2  0
 14 15  1  0
 17 18  2  0
 17 39  1  0
 18 19  1  0
 18 20  1  0
 20 21  1  0
 22 23  1  0
 22 39  2  0
 23 24  1  0
 23 38  1  0
 24 25  1  0
 24 41  2  0
 25 26  1  0
 25 30  1  0
 25 34  1  0
 26 27  1  0
 26 28  1  0
 26 29  1  0
 30 31  1  0
 30 32  1  0
 30 33  1  0
 34 35  1  0
 34 36  1  0
 34 37  1  0
 39 40  1  0
M  END
> <intraLJ>
24.639    

> <intraEL>
-13.831   

> <intraDihe>
27.766    

> <interLJ>
0.000     

> <interEJ>
0.000     

> <gridLJ>
-7.513    

> <gridEL>
0.000     

> <totalE>
31.061    

> <LGFE>
-7.513  

> <LE>
-0.313  

> <SMILES>
CC(C)(C)C(=O)Nc1cc(NC(=O)c2c(Cl)cccc2Cl)ccn1

> <atom.dprop.GFE>
-1.0540 -1.5740 -0.0242 0.0000 -0.8560 0.0000 -0.6360 0.0020 0.0000 -0.5270 -0.1688 -0.1441 -0.0110 0.0738 0.0000 0.0000 -0.0553 0.1030 0.0000 0.0546 0.0000 -0.1182 -0.7930 0.0000 -0.2824 -0.2701 0.0000 0.0000 0.0000 -0.1835 0.0000 0.0000 0.0000 -0.2794 0.0000 0.0000 0.0000 0.0000 -0.0584 0.0000 -0.7110

> <atom.prop.CLASS>
CLBX CLBX BENC NCLA FORN NCLA FORO BENC NCLA IMIN BENC BENC BENC BENC NCLA NCLA BENC BENC NCLA GEHC NCLA GEHC FORN NCLA PRPC PRPC NCLA NCLA NCLA PRPC NCLA NCLA NCLA PRPC NCLA NCLA NCLA NCLA BENC NCLA FORO

> <cluster_id>
1

> <rmsd_to_cluster_rep>
0.00    

> <ligRMSD>
7.28    

> <ligCOMD>
0.99    

$$$$
tyk2_liang_ejmc_45_262
     RDKit          3D

 39 41  0  0  0  0  0  0  0  0999 V2000
   29.3733   26.7833   36.6305 Cl  0  0  0  0  0  0  0  0  0  0  0  0
   30.9556   29.7385   40.9772 Cl  0  0  0  0  0  0  0  0  0  0  0  0
   28.8008   26.3652   40.5981 C   0  0  0  0  0  0  0  0  0  0  0  0
   28.3089   25.6649   41.2572 H   0  0  0  0  0  0  0  0  0  0  0  0
   30.4171   30.3433   37.7302 N   0  0  0  0  0  0  0  0  0  0  0  0
   29.6157   30.6999   38.2019 H   0  0  0  0  0  0  0  0  0  0  0  0
   31.8904   28.6199   37.4894 O   0  0  0  0  0  0  0  0  0  0  0  0
   29.4762   27.4710   41.1276 C   0  0  0  0  0  0  0  0  0  0  0  0
   29.5109   27.6203   42.1966 H   0  0  0  0  0  0  0  0  0  0  0  0
   32.3812   32.9963   35.1381 N   0  0  0  0  0  0  0  0  0  0  0  0
   30.1119   28.3856   40.2759 C   0  0  0  0  0  0  0  0  0  0  0  0
   30.0654   28.2031   38.8795 C   0  0  0  0  0  0  0  0  0  0  0  0
   29.4192   27.0659   38.3525 C   0  0  0  0  0  0  0  0  0  0  0  0
   28.7724   26.1644   39.2123 C   0  0  0  0  0  0  0  0  0  0  0  0
   28.2612   25.3059   38.8030 H   0  0  0  0  0  0  0  0  0  0  0  0
   30.8595   29.0801   37.9758 C   0  0  0  0  0  0  0  0  0  0  0  0
   31.0528   31.2618   36.8417 C   0  0  0  0  0  0  0  0  0  0  0  0
   32.3914   31.6088   37.0822 C   0  0  0  0  0  0  0  0  0  0  0  0
   32.9304   31.1993   37.9214 H   0  0  0  0  0  0  0  0  0  0  0  0
   33.0171   32.4952   36.1917 C   0  0  0  0  0  0  0  0  0  0  0  0
   34.0449   32.7953   36.3493 H   0  0  0  0  0  0  0  0  0  0  0  0
   31.1232   32.6476   34.8773 C   0  0  0  0  0  0  0  0  0  0  0  0
   30.5453   33.2188   33.7169 N   0  0  0  0  0  0  0  0  0  0  0  0
   29.9474   32.6004   32.6751 C   0  0  0  0  0  0  0  0  0  0  0  0
   29.9481   31.0948   32.5670 C   0  0  0  0  0  0  0  0  0  0  0  0
   30.3256   30.7698   31.5751 H   0  0  0  0  0  0  0  0  0  0  0  0
   30.5924   30.6609   33.3617 H   0  0  0  0  0  0  0  0  0  0  0  0
   30.6213   34.2105   33.7009 H   0  0  0  0  0  0  0  0  0  0  0  0
   30.3879   31.8389   35.7427 C   0  0  0  0  0  0  0  0  0  0  0  0
   29.3434   31.6518   35.5585 H   0  0  0  0  0  0  0  0  0  0  0  0
   29.4227   33.2859   31.8044 O   0  0  0  0  0  0  0  0  0  0  0  0
   28.2226   29.7324   33.9506 C   0  0  0  0  0  0  0  0  0  0  0  0
   27.2228   29.8281   34.3421 H   0  0  0  0  0  0  0  0  0  0  0  0
   29.0293   29.5785   34.6483 H   0  0  0  0  0  0  0  0  0  0  0  0
   28.5428   30.5630   32.7126 C   0  0  0  0  0  0  0  0  0  0  0  0
   27.7373   31.1625   32.3136 H   0  0  0  0  0  0  0  0  0  0  0  0
   28.3553   29.0531   32.5923 C   0  0  0  0  0  0  0  0  0  0  0  0
   29.2466   28.4684   32.4332 H   0  0  0  0  0  0  0  0  0  0  0  0
   27.4382   28.7197   32.1343 H   0  0  0  0  0  0  0  0  0  0  0  0
  1 13  1  0
  2 11  1  0
  3  4  1  0
  3  8  2  0
  3 14  1  0
  5  6  1  0
  5 16  1  0
  5 17  1  0
  7 16  2  0
  8  9  1  0
  8 11  1  0
 10 20  2  0
 10 22  1  0
 11 12  2  0
 12 13  1  0
 12 16  1  0
 13 14  2  0
 14 15  1  0
 17 18  2  0
 17 29  1  0
 18 19  1  0
 18 20  1  0
 20 21  1  0
 22 23  1  0
 22 29  2  0
 23 24  1  0
 23 28  1  0
 24 25  1  0
 24 31  2  0
 25 26  1  0
 25 27  1  0
 25 35  1  0
 29 30  1  0
 32 33  1  0
 32 34  1  0
 32 35  1  0
 32 37  1  0
 35 36  1  0
 35 37  1  0
 37 38  1  0
 37 39  1  0
M  END
> <intraLJ>
21.484    

> <intraEL>
-18.430   

> <intraDihe>
36.655    

> <interLJ>
0.000     

> <interEJ>
0.000     

> <gridLJ>
-8.586    

> <gridEL>
0.000     

> <totalE>
31.123    

> <LGFE>
-8.586  

> <LE>
-0.358  

> <SMILES>
O=C(CC1CC1)Nc1cc(NC(=O)c2c(Cl)cccc2Cl)ccn1

> <atom.dprop.GFE>
-1.4730 -0.5380 -0.0713 0.0000 -0.8370 0.0000 -0.6290 0.0222 0.0000 -0.6360 0.0125 -0.0548 -0.0157 -0.0778 0.0000 0.0000 -0.0473 -0.0434 0.0000 -0.1975 0.0000 -0.1608 -1.0290 0.0000 -0.2634 0.0000 0.0000 0.0000 -0.0982 0.0000 -0.6160 -0.7892 0.0000 0.0000 -0.4372 0.0000 -0.6061 0.0000 0.0000

> <atom.prop.CLASS>
CLBX CLBX BENC NCLA FORN NCLA FORO BENC NCLA IMIN BENC BENC BENC BENC NCLA NCLA BENC BENC NCLA GEHC NCLA GEHC FORN NCLA PRPC NCLA NCLA NCLA BENC NCLA FORO PRPC NCLA NCLA PRPC NCLA PRPC NCLA NCLA

> <cluster_id>
1

> <rmsd_to_cluster_rep>
0.00    

> <ligRMSD>
6.57    

> <ligCOMD>
0.73    

$$$$
tyk2_liang_ejmc_46_670
     RDKit          3D

 36 38  0  0  0  0  0  0  0  0999 V2000
   31.4265   30.6674   38.9662 Cl  0  0  0  0  0  0  0  0  0  0  0  0
   33.5441   35.2723   36.8557 Cl  0  0  0  0  0  0  0  0  0  0  0  0
   33.7910   33.5563   40.4833 C   0  0  0  0  0  0  0  0  0  0  0  0
   34.2781   33.7669   41.4240 H   0  0  0  0  0  0  0  0  0  0  0  0
   30.6029   32.5170   36.5680 N   0  0  0  0  0  0  0  0  0  0  0  0
   29.9935   32.7370   37.3244 H   0  0  0  0  0  0  0  0  0  0  0  0
   32.7430   32.4735   35.7824 O   0  0  0  0  0  0  0  0  0  0  0  0
   33.9449   34.4320   39.4022 C   0  0  0  0  0  0  0  0  0  0  0  0
   34.5571   35.3155   39.5071 H   0  0  0  0  0  0  0  0  0  0  0  0
   28.7720   31.3520   32.9759 N   0  0  0  0  0  0  0  0  0  0  0  0
   33.3104   34.1657   38.1805 C   0  0  0  0  0  0  0  0  0  0  0  0
   32.5039   33.0193   38.0367 C   0  0  0  0  0  0  0  0  0  0  0  0
   32.3846   32.1188   39.1154 C   0  0  0  0  0  0  0  0  0  0  0  0
   33.0109   32.4022   40.3390 C   0  0  0  0  0  0  0  0  0  0  0  0
   32.9001   31.7201   41.1688 H   0  0  0  0  0  0  0  0  0  0  0  0
   31.9503   32.6465   36.7058 C   0  0  0  0  0  0  0  0  0  0  0  0
   29.9490   32.1098   35.3661 C   0  0  0  0  0  0  0  0  0  0  0  0
   30.3057   32.7426   34.1652 C   0  0  0  0  0  0  0  0  0  0  0  0
   31.0508   33.5217   34.1465 H   0  0  0  0  0  0  0  0  0  0  0  0
   29.6772   32.3239   32.9825 C   0  0  0  0  0  0  0  0  0  0  0  0
   29.9201   32.7922   32.0375 H   0  0  0  0  0  0  0  0  0  0  0  0
   28.4412   30.7242   34.1015 C   0  0  0  0  0  0  0  0  0  0  0  0
   27.4804   29.6907   33.9703 N   0  0  0  0  0  0  0  0  0  0  0  0
   27.4794   28.4905   34.5846 C   0  0  0  0  0  0  0  0  0  0  0  0
   26.7845   29.8874   33.2869 H   0  0  0  0  0  0  0  0  0  0  0  0
   28.9555   31.1115   35.3398 C   0  0  0  0  0  0  0  0  0  0  0  0
   28.6049   30.6488   36.2466 H   0  0  0  0  0  0  0  0  0  0  0  0
   26.5742   27.6945   34.3573 O   0  0  0  0  0  0  0  0  0  0  0  0
   30.0412   28.1557   35.0331 C   0  0  0  0  0  0  0  0  0  0  0  0
   30.7657   28.4037   35.7918 H   0  0  0  0  0  0  0  0  0  0  0  0
   30.2118   28.5170   34.0319 H   0  0  0  0  0  0  0  0  0  0  0  0
   28.5940   28.0354   35.4971 C   0  0  0  0  0  0  0  0  0  0  0  0
   28.4101   28.2002   36.5472 H   0  0  0  0  0  0  0  0  0  0  0  0
   29.3828   26.7793   35.1526 C   0  0  0  0  0  0  0  0  0  0  0  0
   29.1458   26.2831   34.2255 H   0  0  0  0  0  0  0  0  0  0  0  0
   29.7051   26.1736   35.9841 H   0  0  0  0  0  0  0  0  0  0  0  0
  1 13  1  0
  2 11  1  0
  3  4  1  0
  3  8  2  0
  3 14  1  0
  5  6  1  0
  5 16  1  0
  5 17  1  0
  7 16  2  0
  8  9  1  0
  8 11  1  0
 10 20  2  0
 10 22  1  0
 11 12  2  0
 12 13  1  0
 12 16  1  0
 13 14  2  0
 14 15  1  0
 17 18  2  0
 17 26  1  0
 18 19  1  0
 18 20  1  0
 20 21  1  0
 22 23  1  0
 22 26  2  0
 23 24  1  0
 23 25  1  0
 24 28  2  0
 24 32  1  0
 26 27  1  0
 29 30  1  0
 29 31  1  0
 29 32  1  0
 29 34  1  0
 32 33  1  0
 32 34  1  0
 34 35  1  0
 34 36  1  0
M  END
> <intraLJ>
24.500    

> <intraEL>
-14.415   

> <intraDihe>
41.568    

> <interLJ>
0.000     

> <interEJ>
0.000     

> <gridLJ>
-7.043    

> <gridEL>
0.000     

> <totalE>
44.610    

> <LGFE>
-7.043  

> <LE>
-0.306  

> <SMILES>
O=C(Nc1ccnc(NC(=O)C2CC2)c1)c1c(Cl)cccc1Cl

> <atom.dprop.GFE>
-0.2540 -1.2330 -0.0023 0.0000 -0.6360 0.0000 -0.0840 0.0434 0.0000 0.1630 0.0569 0.0065 0.0523 0.0523 0.0000 0.0000 -0.0872 -0.1341 0.0000 -0.1868 0.0000 0.0756 -0.8600 0.0000 0.0000 -0.1899 0.0000 -2.2560 -0.4542 0.0000 0.0000 -0.6653 0.0000 -0.4505 0.0000 0.0000

> <atom.prop.CLASS>
CLBX CLBX BENC NCLA FORN NCLA FORO BENC NCLA IMIN BENC BENC BENC BENC NCLA NCLA BENC BENC NCLA GEHC NCLA GEHC FORN NCLA NCLA BENC NCLA FORO PRPC NCLA NCLA PRPC NCLA PRPC NCLA NCLA

> <cluster_id>
1

> <rmsd_to_cluster_rep>
0.00    

> <ligRMSD>
2.41    

> <ligCOMD>
0.59    

$$$$
tyk2_liang_ejmc_47_187
     RDKit          3D

 39 41  0  0  0  0  0  0  0  0999 V2000
   31.2122   31.7981   38.6333 Cl  0  0  0  0  0  0  0  0  0  0  0  0
   31.3606   32.7676   33.2284 Cl  0  0  0  0  0  0  0  0  0  0  0  0
   32.7917   34.7634   36.4114 C   0  0  0  0  0  0  0  0  0  0  0  0
   33.3534   35.6692   36.5868 H   0  0  0  0  0  0  0  0  0  0  0  0
   29.5055   31.0504   35.0080 N   0  0  0  0  0  0  0  0  0  0  0  0
   29.1308   31.8782   34.6002 H   0  0  0  0  0  0  0  0  0  0  0  0
   31.2236   30.0943   36.1667 O   0  0  0  0  0  0  0  0  0  0  0  0
   32.4624   34.3843   35.1049 C   0  0  0  0  0  0  0  0  0  0  0  0
   32.7767   34.9946   34.2712 H   0  0  0  0  0  0  0  0  0  0  0  0
   27.3514   27.5516   34.1763 N   0  0  0  0  0  0  0  0  0  0  0  0
   31.7295   33.2121   34.8720 C   0  0  0  0  0  0  0  0  0  0  0  0
   31.3103   32.4134   35.9546 C   0  0  0  0  0  0  0  0  0  0  0  0
   31.6785   32.7779   37.2663 C   0  0  0  0  0  0  0  0  0  0  0  0
   32.3987   33.9611   37.4896 C   0  0  0  0  0  0  0  0  0  0  0  0
   32.6612   34.2468   38.4973 H   0  0  0  0  0  0  0  0  0  0  0  0
   30.6680   31.0934   35.7143 C   0  0  0  0  0  0  0  0  0  0  0  0
   28.7561   29.8627   34.7559 C   0  0  0  0  0  0  0  0  0  0  0  0
   28.3193   29.6083   33.4470 C   0  0  0  0  0  0  0  0  0  0  0  0
   28.5342   30.2957   32.6446 H   0  0  0  0  0  0  0  0  0  0  0  0
   27.6039   28.4251   33.2063 C   0  0  0  0  0  0  0  0  0  0  0  0
   27.2391   28.1967   32.2134 H   0  0  0  0  0  0  0  0  0  0  0  0
   27.7906   27.7600   35.4173 C   0  0  0  0  0  0  0  0  0  0  0  0
   27.4752   26.7576   36.3731 N   0  0  0  0  0  0  0  0  0  0  0  0
   28.1846   26.2926   37.4342 C   0  0  0  0  0  0  0  0  0  0  0  0
   26.5940   26.3356   36.1829 H   0  0  0  0  0  0  0  0  0  0  0  0
   28.4300   28.9451   35.7724 C   0  0  0  0  0  0  0  0  0  0  0  0
   28.6794   29.1470   36.7993 H   0  0  0  0  0  0  0  0  0  0  0  0
   27.6837   25.4445   38.1688 O   0  0  0  0  0  0  0  0  0  0  0  0
   29.9509   26.5770   39.7826 C   0  0  0  0  0  0  0  0  0  0  0  0
   30.7575   26.7704   40.4952 H   0  0  0  0  0  0  0  0  0  0  0  0
   29.0729   26.1604   40.2845 H   0  0  0  0  0  0  0  0  0  0  0  0
   30.3753   25.7691   38.5299 C   0  0  0  0  0  0  0  0  0  0  0  0
   30.0356   24.7285   38.5110 H   0  0  0  0  0  0  0  0  0  0  0  0
   31.4552   25.8133   38.3614 H   0  0  0  0  0  0  0  0  0  0  0  0
   29.6109   26.7920   37.6459 C   0  0  0  0  0  0  0  0  0  0  0  0
   30.1606   27.1210   36.7606 H   0  0  0  0  0  0  0  0  0  0  0  0
   29.6084   27.7693   38.8547 C   0  0  0  0  0  0  0  0  0  0  0  0
   28.6632   28.2708   39.0865 H   0  0  0  0  0  0  0  0  0  0  0  0
   30.4235   28.4966   38.7967 H   0  0  0  0  0  0  0  0  0  0  0  0
  1 13  1  0
  2 11  1  0
  3  4  1  0
  3  8  2  0
  3 14  1  0
  5  6  1  0
  5 16  1  0
  5 17  1  0
  7 16  2  0
  8  9  1  0
  8 11  1  0
 10 20  2  0
 10 22  1  0
 11 12  2  0
 12 13  1  0
 12 16  1  0
 13 14  2  0
 14 15  1  0
 17 18  2  0
 17 26  1  0
 18 19  1  0
 18 20  1  0
 20 21  1  0
 22 23  1  0
 22 26  2  0
 23 24  1  0
 23 25  1  0
 24 28  2  0
 24 35  1  0
 26 27  1  0
 29 30  1  0
 29 31  1  0
 29 32  1  0
 29 37  1  0
 32 33  1  0
 32 34  1  0
 32 35  1  0
 35 36  1  0
 35 37  1  0
 37 38  1  0
 37 39  1  0
M  END
> <intraLJ>
25.197    

> <intraEL>
-12.310   

> <intraDihe>
55.703    

> <interLJ>
0.000     

> <interEJ>
0.000     

> <gridLJ>
-7.962    

> <gridEL>
0.000     

> <totalE>
60.628    

> <LGFE>
-7.962  

> <LE>
-0.332  

> <SMILES>
O=C(Nc1ccnc(NC(=O)C2CCC2)c1)c1c(Cl)cccc1Cl

> <atom.dprop.GFE>
-0.2410 -1.5660 0.0579 0.0000 -0.6230 0.0000 -0.5020 0.0620 0.0000 -1.7190 0.0077 -0.0982 -0.0631 0.0514 0.0000 0.0000 -0.2911 -0.2710 0.0000 -0.1935 0.0000 -0.3453 -1.8690 0.0000 0.0000 -0.2806 0.0000 -0.4770 0.0999 0.0000 0.0000 0.4342 0.0000 0.0000 -0.0470 0.0000 -0.0882 0.0000 0.0000

> <atom.prop.CLASS>
CLBX CLBX BENC NCLA FORN NCLA FORO BENC NCLA IMIN BENC BENC BENC BENC NCLA NCLA BENC BENC NCLA GEHC NCLA GEHC FORN NCLA NCLA BENC NCLA FORO PRPC NCLA NCLA PRPC NCLA NCLA PRPC NCLA PRPC NCLA NCLA

> <cluster_id>
1

> <rmsd_to_cluster_rep>
0.00    

> <ligRMSD>
1.54    

> <ligCOMD>
0.91    

$$$$
tyk2_liang_ejmc_48_364
     RDKit          3D

 42 44  0  0  0  0  0  0  0  0999 V2000
   28.4670   27.6312   37.6597 Cl  0  0  0  0  0  0  0  0  0  0  0  0
   32.5830   29.8924   40.5038 Cl  0  0  0  0  0  0  0  0  0  0  0  0
   29.7392   27.2163   41.4608 C   0  0  0  0  0  0  0  0  0  0  0  0
   29.4571   26.6421   42.3311 H   0  0  0  0  0  0  0  0  0  0  0  0
   31.0844   30.7556   37.9628 N   0  0  0  0  0  0  0  0  0  0  0  0
   30.9550   31.2759   38.8022 H   0  0  0  0  0  0  0  0  0  0  0  0
   31.1617   28.7019   36.9745 O   0  0  0  0  0  0  0  0  0  0  0  0
   30.8348   28.0855   41.5188 C   0  0  0  0  0  0  0  0  0  0  0  0
   31.4026   28.1768   42.4329 H   0  0  0  0  0  0  0  0  0  0  0  0
   32.3190   32.9837   34.6275 N   0  0  0  0  0  0  0  0  0  0  0  0
   31.2018   28.8368   40.3933 C   0  0  0  0  0  0  0  0  0  0  0  0
   30.4624   28.7294   39.1986 C   0  0  0  0  0  0  0  0  0  0  0  0
   29.3846   27.8224   39.1322 C   0  0  0  0  0  0  0  0  0  0  0  0
   29.0154   27.0866   40.2688 C   0  0  0  0  0  0  0  0  0  0  0  0
   28.1766   26.4083   40.2194 H   0  0  0  0  0  0  0  0  0  0  0  0
   30.9306   29.4037   37.9569 C   0  0  0  0  0  0  0  0  0  0  0  0
   31.4700   31.5297   36.8275 C   0  0  0  0  0  0  0  0  0  0  0  0
   32.8213   31.8825   36.6861 C   0  0  0  0  0  0  0  0  0  0  0  0
   33.5541   31.5841   37.4185 H   0  0  0  0  0  0  0  0  0  0  0  0
   33.1986   32.6236   35.5554 C   0  0  0  0  0  0  0  0  0  0  0  0
   34.2292   32.9232   35.4157 H   0  0  0  0  0  0  0  0  0  0  0  0
   31.0410   32.6277   34.7317 C   0  0  0  0  0  0  0  0  0  0  0  0
   30.1911   33.0530   33.6822 N   0  0  0  0  0  0  0  0  0  0  0  0
   29.2181   32.3706   33.0390 C   0  0  0  0  0  0  0  0  0  0  0  0
   30.3784   33.9886   33.4001 H   0  0  0  0  0  0  0  0  0  0  0  0
   30.5494   31.9622   35.8536 C   0  0  0  0  0  0  0  0  0  0  0  0
   29.4952   31.7700   35.9538 H   0  0  0  0  0  0  0  0  0  0  0  0
   28.5221   32.9440   32.2085 O   0  0  0  0  0  0  0  0  0  0  0  0
   27.3866   29.1073   33.7372 C   0  0  0  0  0  0  0  0  0  0  0  0
   26.3143   28.8789   33.6739 H   0  0  0  0  0  0  0  0  0  0  0  0
   27.7875   28.5040   34.5672 H   0  0  0  0  0  0  0  0  0  0  0  0
   27.6408   30.6025   33.9989 C   0  0  0  0  0  0  0  0  0  0  0  0
   27.6588   30.8434   35.0692 H   0  0  0  0  0  0  0  0  0  0  0  0
   26.8209   31.1924   33.5561 H   0  0  0  0  0  0  0  0  0  0  0  0
   28.9641   30.8977   33.2804 C   0  0  0  0  0  0  0  0  0  0  0  0
   29.7837   30.4278   33.8485 H   0  0  0  0  0  0  0  0  0  0  0  0
   28.8289   30.0737   31.9894 C   0  0  0  0  0  0  0  0  0  0  0  0
   29.7896   29.8949   31.4893 H   0  0  0  0  0  0  0  0  0  0  0  0
   28.1829   30.5884   31.2592 H   0  0  0  0  0  0  0  0  0  0  0  0
   28.1398   28.7696   32.4336 C   0  0  0  0  0  0  0  0  0  0  0  0
   28.8889   27.9860   32.6265 H   0  0  0  0  0  0  0  0  0  0  0  0
   27.4711   28.3781   31.6551 H   0  0  0  0  0  0  0  0  0  0  0  0
  1 13  1  0
  2 11  1  0
  3  4  1  0
  3  8  2  0
  3 14  1  0
  5  6  1  0
  5 16  1  0
  5 17  1  0
  7 16  2  0
  8  9  1  0
  8 11  1  0
 10 20  2  0
 10 22  1  0
 11 12  2  0
 12 13  1  0
 12 16  1  0
 13 14  2  0
 14 15  1  0
 17 18  2  0
 17 26  1  0
 18 19  1  0
 18 20  1  0
 20 21  1  0
 22 23  1  0
 22 26  2  0
 23 24  1  0
 23 25  1  0
 24 28  2  0
 24 35  1  0
 26 27  1  0
 29 30  1  0
 29 31  1  0
 29 32  1  0
 29 40  1  0
 32 33  1  0
 32 34  1  0
 32 35  1  0
 35 36  1  0
 35 37  1  0
 37 38  1  0
 37 39  1  0
 37 40  1  0
 40 41  1  0
 40 42  1  0
M  END
> <intraLJ>
21.427    

> <intraEL>
-15.070   

> <intraDihe>
37.257    

> <interLJ>
0.000     

> <interEJ>
0.000     

> <gridLJ>
-8.544    

> <gridEL>
0.000     

> <totalE>
35.069    

> <LGFE>
-8.544  

> <LE>
-0.342  

> <SMILES>
O=C(Nc1ccnc(NC(=O)C2CCCC2)c1)c1c(Cl)cccc1Cl

> <atom.dprop.GFE>
-1.2630 -1.4430 0.0222 0.0000 -0.8370 0.0000 -0.8030 0.1470 0.0000 -0.6870 0.0848 0.1470 0.0107 0.0048 0.0000 0.0000 -0.0199 0.0144 0.0000 -0.1265 0.0000 -0.1608 -0.2060 0.0000 0.0000 -0.0982 0.0000 -0.1330 -0.7892 0.0000 0.0000 -0.7366 0.0000 0.0000 -0.6287 0.0000 -0.4372 0.0000 0.0000 -0.6061 0.0000 0.0000

> <atom.prop.CLASS>
CLBX CLBX BENC NCLA FORN NCLA FORO BENC NCLA IMIN BENC BENC BENC BENC NCLA NCLA BENC BENC NCLA GEHC NCLA GEHC FORN NCLA NCLA BENC NCLA FORO PRPC NCLA NCLA PRPC NCLA NCLA PRPC NCLA PRPC NCLA NCLA PRPC NCLA NCLA

> <cluster_id>
1

> <rmsd_to_cluster_rep>
0.00    

> <ligRMSD>
6.12    

> <ligCOMD>
0.92    

$$$$
tyk2_liang_ejmc_49_742
     RDKit          3D

 39 41  0  0  0  0  0  0  0  0999 V2000
   30.3063   32.4220   38.8821 Cl  0  0  0  0  0  0  0  0  0  0  0  0
   30.6254   32.7795   33.4124 Cl  0  0  0  0  0  0  0  0  0  0  0  0
   31.5819   35.3141   36.3832 C   0  0  0  0  0  0  0  0  0  0  0  0
   32.0008   36.3060   36.4698 H   0  0  0  0  0  0  0  0  0  0  0  0
   28.9492   31.0201   35.2837 N   0  0  0  0  0  0  0  0  0  0  0  0
   28.5018   31.7279   34.7444 H   0  0  0  0  0  0  0  0  0  0  0  0
   30.6760   30.4733   36.6687 O   0  0  0  0  0  0  0  0  0  0  0  0
   31.3844   34.7439   35.1203 C   0  0  0  0  0  0  0  0  0  0  0  0
   31.6576   35.2937   34.2319 H   0  0  0  0  0  0  0  0  0  0  0  0
   27.3318   27.1808   34.7640 N   0  0  0  0  0  0  0  0  0  0  0  0
   30.8363   33.4587   35.0026 C   0  0  0  0  0  0  0  0  0  0  0  0
   30.4700   32.7371   36.1560 C   0  0  0  0  0  0  0  0  0  0  0  0
   30.7090   33.2986   37.4274 C   0  0  0  0  0  0  0  0  0  0  0  0
   31.2435   34.5918   37.5343 C   0  0  0  0  0  0  0  0  0  0  0  0
   31.4056   35.0260   38.5096 H   0  0  0  0  0  0  0  0  0  0  0  0
   30.0317   31.3184   36.0518 C   0  0  0  0  0  0  0  0  0  0  0  0
   28.3889   29.7143   35.1462 C   0  0  0  0  0  0  0  0  0  0  0  0
   27.9086   29.3254   33.8859 C   0  0  0  0  0  0  0  0  0  0  0  0
   27.9549   29.9948   33.0419 H   0  0  0  0  0  0  0  0  0  0  0  0
   27.3809   28.0326   33.7465 C   0  0  0  0  0  0  0  0  0  0  0  0
   26.9967   27.6981   32.7915 H   0  0  0  0  0  0  0  0  0  0  0  0
   27.8028   27.5260   35.9588 C   0  0  0  0  0  0  0  0  0  0  0  0
   27.7510   26.5138   36.9560 N   0  0  0  0  0  0  0  0  0  0  0  0
   28.4753   26.4017   38.0956 C   0  0  0  0  0  0  0  0  0  0  0  0
   26.9602   25.9214   36.8389 H   0  0  0  0  0  0  0  0  0  0  0  0
   28.2882   28.8091   36.2212 C   0  0  0  0  0  0  0  0  0  0  0  0
   28.5998   29.0823   37.2157 H   0  0  0  0  0  0  0  0  0  0  0  0
   28.0597   25.6774   38.9960 O   0  0  0  0  0  0  0  0  0  0  0  0
   32.2412   28.4515   38.6034 C   0  0  0  0  0  0  0  0  0  0  0  0
   33.1776   28.9729   38.7373 H   0  0  0  0  0  0  0  0  0  0  0  0
   31.2927   28.4394   39.6331 C   0  0  0  0  0  0  0  0  0  0  0  0
   31.4989   28.9513   40.5615 H   0  0  0  0  0  0  0  0  0  0  0  0
   30.0759   27.7656   39.4623 C   0  0  0  0  0  0  0  0  0  0  0  0
   29.3552   27.7749   40.2680 H   0  0  0  0  0  0  0  0  0  0  0  0
   29.7919   27.1065   38.2523 C   0  0  0  0  0  0  0  0  0  0  0  0
   30.7621   27.1102   37.2265 C   0  0  0  0  0  0  0  0  0  0  0  0
   30.5861   26.5925   36.2947 H   0  0  0  0  0  0  0  0  0  0  0  0
   31.9765   27.7856   37.4014 C   0  0  0  0  0  0  0  0  0  0  0  0
   32.7098   27.7909   36.6084 H   0  0  0  0  0  0  0  0  0  0  0  0
  1 13  1  0
  2 11  1  0
  3  4  1  0
  3  8  2  0
  3 14  1  0
  5  6  1  0
  5 16  1  0
  5 17  1  0
  7 16  2  0
  8  9  1  0
  8 11  1  0
 10 20  2  0
 10 22  1  0
 11 12  2  0
 12 13  1  0
 12 16  1  0
 13 14  2  0
 14 15  1  0
 17 18  2  0
 17 26  1  0
 18 19  1  0
 18 20  1  0
 20 21  1  0
 22 23  1  0
 22 26  2  0
 23 24  1  0
 23 25  1  0
 24 28  2  0
 24 35  1  0
 26 27  1  0
 29 30  1  0
 29 31  2  0
 29 38  1  0
 31 32  1  0
 31 33  1  0
 33 34  1  0
 33 35  2  0
 35 36  1  0
 36 37  1  0
 36 38  2  0
 38 39  1  0
M  END
> <intraLJ>
35.721    

> <intraEL>
-15.091   

> <intraDihe>
18.471    

> <interLJ>
0.000     

> <interEJ>
0.000     

> <gridLJ>
-6.943    

> <gridEL>
0.000     

> <totalE>
32.158    

> <LGFE>
-6.943  

> <LE>
-0.267  

> <SMILES>
O=C(Nc1cc(NC(=O)c2c(Cl)cccc2Cl)ccn1)c1ccccc1

> <atom.dprop.GFE>
-0.4980 -1.5660 0.2679 0.0000 -0.0130 0.0000 -0.5020 0.0610 0.0000 -1.7190 0.0222 -0.0548 -0.0833 0.0641 0.0000 0.0000 -0.2806 -0.2710 0.0000 -0.2234 0.0000 -0.3453 -1.8690 0.0000 0.0000 -0.0207 0.0000 -0.9980 0.2961 0.0000 0.1470 0.0000 -0.0237 0.0000 -0.0157 0.3076 0.0000 0.3749 0.0000

> <atom.prop.CLASS>
CLBX CLBX BENC NCLA FORN NCLA FORO BENC NCLA IMIN BENC BENC BENC BENC NCLA NCLA BENC BENC NCLA GEHC NCLA GEHC FORN NCLA NCLA BENC NCLA FORO BENC NCLA BENC NCLA BENC NCLA BENC BENC NCLA BENC NCLA

> <cluster_id>
1

> <rmsd_to_cluster_rep>
0.00    

> <ligRMSD>
1.91    

> <ligCOMD>
0.89    

$$$$
tyk2_liang_ejmc_50_1129
     RDKit          3D

 33 34  0  0  0  0  0  0  0  0999 V2000
   31.3476   32.8331   38.0267 Cl  0  0  0  0  0  0  0  0  0  0  0  0
   30.9939   32.7719   32.5420 Cl  0  0  0  0  0  0  0  0  0  0  0  0
   32.6310   35.3489   35.1571 C   0  0  0  0  0  0  0  0  0  0  0  0
   33.1769   36.2797   35.1095 H   0  0  0  0  0  0  0  0  0  0  0  0
   29.4178   31.3567   34.6733 N   0  0  0  0  0  0  0  0  0  0  0  0
   29.0313   32.0622   34.0861 H   0  0  0  0  0  0  0  0  0  0  0  0
   31.1466   30.7243   36.0231 O   0  0  0  0  0  0  0  0  0  0  0  0
   32.2005   34.7272   33.9793 C   0  0  0  0  0  0  0  0  0  0  0  0
   32.4213   35.1754   33.0218 H   0  0  0  0  0  0  0  0  0  0  0  0
   27.3067   27.7325   34.6534 N   0  0  0  0  0  0  0  0  0  0  0  0
   31.4879   33.5213   34.0354 C   0  0  0  0  0  0  0  0  0  0  0  0
   31.1917   32.9331   35.2814 C   0  0  0  0  0  0  0  0  0  0  0  0
   31.6607   33.5429   36.4634 C   0  0  0  0  0  0  0  0  0  0  0  0
   32.3594   34.7572   36.3966 C   0  0  0  0  0  0  0  0  0  0  0  0
   32.6996   35.2306   37.3056 H   0  0  0  0  0  0  0  0  0  0  0  0
   30.5758   31.5816   35.3514 C   0  0  0  0  0  0  0  0  0  0  0  0
   28.6882   30.1312   34.7015 C   0  0  0  0  0  0  0  0  0  0  0  0
   28.0700   29.6920   33.5203 C   0  0  0  0  0  0  0  0  0  0  0  0
   28.1333   30.2680   32.6110 H   0  0  0  0  0  0  0  0  0  0  0  0
   27.3779   28.4712   33.5500 C   0  0  0  0  0  0  0  0  0  0  0  0
   26.8792   28.1023   32.6632 H   0  0  0  0  0  0  0  0  0  0  0  0
   27.9177   28.1197   35.7713 C   0  0  0  0  0  0  0  0  0  0  0  0
   27.8040   27.2597   36.8942 N   0  0  0  0  0  0  0  0  0  0  0  0
   28.7407   26.9520   37.8235 C   0  0  0  0  0  0  0  0  0  0  0  0
   30.1572   27.4563   37.6909 C   0  0  0  0  0  0  0  0  0  0  0  0
   30.5397   27.3208   36.6583 H   0  0  0  0  0  0  0  0  0  0  0  0
   31.0346   26.7689   38.5776 O   0  0  0  0  0  0  0  0  0  0  0  0
   30.5312   26.6092   39.3807 H   0  0  0  0  0  0  0  0  0  0  0  0
   30.1838   28.5384   37.9467 H   0  0  0  0  0  0  0  0  0  0  0  0
   26.9142   26.8173   36.9481 H   0  0  0  0  0  0  0  0  0  0  0  0
   28.5617   29.3516   35.8673 C   0  0  0  0  0  0  0  0  0  0  0  0
   28.9669   29.6810   36.8095 H   0  0  0  0  0  0  0  0  0  0  0  0
   28.4326   26.2289   38.7670 O   0  0  0  0  0  0  0  0  0  0  0  0
  1 13  1  0
  2 11  1  0
  3  4  1  0
  3  8  2  0
  3 14  1  0
  5  6  1  0
  5 16  1  0
  5 17  1  0
  7 16  2  0
  8  9  1  0
  8 11  1  0
 10 20  2  0
 10 22  1  0
 11 12  2  0
 12 13  1  0
 12 16  1  0
 13 14  2  0
 14 15  1  0
 17 18  2  0
 17 31  1  0
 18 19  1  0
 18 20  1  0
 20 21  1  0
 22 23  1  0
 22 31  2  0
 23 24  1  0
 23 30  1  0
 24 25  1  0
 24 33  2  0
 25 26  1  0
 25 27  1  0
 25 29  1  0
 27 28  1  0
 31 32  1  0
M  END
> <intraLJ>
26.584    

> <intraEL>
-10.671   

> <intraDihe>
19.928    

> <interLJ>
0.000     

> <interEJ>
0.000     

> <gridLJ>
-8.199    

> <gridEL>
0.000     

> <totalE>
27.641    

> <LGFE>
-8.199  

> <LE>
-0.373  

> <SMILES>
O=C(CO)Nc1cc(NC(=O)c2c(Cl)cccc2Cl)ccn1

> <atom.dprop.GFE>
-0.5900 -1.7850 0.2961 0.0000 -0.3730 0.0000 -0.5020 0.2460 0.0000 -1.7190 0.0077 0.0222 0.0065 0.0307 0.0000 0.0000 -0.2911 -0.2710 0.0000 -0.2234 0.0000 -0.1675 -1.4000 0.0000 -0.0470 0.0000 -0.2060 0.0000 0.0000 0.0000 -0.2806 0.0000 -0.9530

> <atom.prop.CLASS>
CLBX CLBX BENC NCLA FORN NCLA FORO BENC NCLA IMIN BENC BENC BENC BENC NCLA NCLA BENC BENC NCLA GEHC NCLA GEHC FORN NCLA PRPC NCLA MEOO NCLA NCLA NCLA BENC NCLA FORO

> <cluster_id>
1

> <rmsd_to_cluster_rep>
0.00    

> <ligRMSD>
1.89    

> <ligCOMD>
0.79    

$$$$
tyk2_liang_ejmc_51_363
     RDKit          3D

 34 35  0  0  0  0  0  0  0  0999 V2000
   31.0781   32.0866   38.6683 Cl  0  0  0  0  0  0  0  0  0  0  0  0
   31.1783   32.7679   33.2224 Cl  0  0  0  0  0  0  0  0  0  0  0  0
   32.5369   34.9911   36.2847 C   0  0  0  0  0  0  0  0  0  0  0  0
   33.0620   35.9268   36.4083 H   0  0  0  0  0  0  0  0  0  0  0  0
   29.4022   31.0769   35.0858 N   0  0  0  0  0  0  0  0  0  0  0  0
   29.0011   31.8625   34.6232 H   0  0  0  0  0  0  0  0  0  0  0  0
   31.1387   30.2568   36.3141 O   0  0  0  0  0  0  0  0  0  0  0  0
   32.2217   34.5278   35.0020 C   0  0  0  0  0  0  0  0  0  0  0  0
   32.5098   35.1035   34.1350 H   0  0  0  0  0  0  0  0  0  0  0  0
   27.3808   27.4542   34.4429 N   0  0  0  0  0  0  0  0  0  0  0  0
   31.5355   33.3162   34.8367 C   0  0  0  0  0  0  0  0  0  0  0  0
   31.1490   32.5620   35.9624 C   0  0  0  0  0  0  0  0  0  0  0  0
   31.5045   33.0118   37.2507 C   0  0  0  0  0  0  0  0  0  0  0  0
   32.1776   34.2336   37.4067 C   0  0  0  0  0  0  0  0  0  0  0  0
   32.4298   34.5844   38.3963 H   0  0  0  0  0  0  0  0  0  0  0  0
   30.5548   31.2070   35.7972 C   0  0  0  0  0  0  0  0  0  0  0  0
   28.7025   29.8465   34.9023 C   0  0  0  0  0  0  0  0  0  0  0  0
   28.2336   29.5278   33.6182 C   0  0  0  0  0  0  0  0  0  0  0  0
   28.3895   30.1965   32.7869 H   0  0  0  0  0  0  0  0  0  0  0  0
   27.5666   28.3055   33.4398 C   0  0  0  0  0  0  0  0  0  0  0  0
   27.1817   28.0289   32.4668 H   0  0  0  0  0  0  0  0  0  0  0  0
   27.8504   27.7288   35.6574 C   0  0  0  0  0  0  0  0  0  0  0  0
   27.6239   26.7479   36.6534 N   0  0  0  0  0  0  0  0  0  0  0  0
   28.4633   26.3123   37.6194 C   0  0  0  0  0  0  0  0  0  0  0  0
   29.9062   26.7673   37.6616 C   0  0  0  0  0  0  0  0  0  0  0  0
   30.5843   25.9081   37.8609 H   0  0  0  0  0  0  0  0  0  0  0  0
   30.1226   27.7823   38.7279 N   0  0  0  0  0  0  0  0  0  0  0  0
   29.4591   28.5475   38.6617 H   0  0  0  0  0  0  0  0  0  0  0  0
   29.9961   27.3949   39.6570 H   0  0  0  0  0  0  0  0  0  0  0  0
   30.1777   27.2076   36.6760 H   0  0  0  0  0  0  0  0  0  0  0  0
   26.7174   26.3423   36.5917 H   0  0  0  0  0  0  0  0  0  0  0  0
   28.4565   28.9478   35.9581 C   0  0  0  0  0  0  0  0  0  0  0  0
   28.7433   29.1778   36.9706 H   0  0  0  0  0  0  0  0  0  0  0  0
   28.0383   25.5179   38.4525 O   0  0  0  0  0  0  0  0  0  0  0  0
  1 13  1  0
  2 11  1  0
  3  4  1  0
  3  8  2  0
  3 14  1  0
  5  6  1  0
  5 16  1  0
  5 17  1  0
  7 16  2  0
  8  9  1  0
  8 11  1  0
 10 20  2  0
 10 22  1  0
 11 12  2  0
 12 13  1  0
 12 16  1  0
 13 14  2  0
 14 15  1  0
 17 18  2  0
 17 32  1  0
 18 19  1  0
 18 20  1  0
 20 21  1  0
 22 23  1  0
 22 32  2  0
 23 24  1  0
 23 31  1  0
 24 25  1  0
 24 34  2  0
 25 26  1  0
 25 27  1  0
 25 30  1  0
 27 28  1  0
 27 29  1  0
 32 33  1  0
M  END
> <intraLJ>
25.181    

> <intraEL>
-9.965    

> <intraDihe>
20.505    

> <interLJ>
0.000     

> <interEJ>
0.000     

> <gridLJ>
-8.864    

> <gridEL>
0.000     

> <totalE>
26.857    

> <LGFE>
-8.864  

> <LE>
-0.403  

> <SMILES>
NCC(=O)Nc1cc(NC(=O)c2c(Cl)cccc2Cl)ccn1

> <atom.dprop.GFE>
-0.2410 -1.5660 0.2460 0.0000 -0.6230 0.0000 -0.5020 0.0610 0.0000 -1.7190 0.0077 -0.0982 -0.0631 0.0237 0.0000 0.0000 -0.2911 -0.2710 0.0000 -0.1935 0.0000 -0.3453 -1.8690 0.0000 -0.0470 0.0000 -0.6160 0.0000 0.0000 0.0000 0.0000 -0.2806 0.0000 -0.4770

> <atom.prop.CLASS>
CLBX CLBX BENC NCLA FORN NCLA FORO BENC NCLA IMIN BENC BENC BENC BENC NCLA NCLA BENC BENC NCLA GEHC NCLA GEHC FORN NCLA PRPC NCLA FORN NCLA NCLA NCLA NCLA BENC NCLA FORO

> <cluster_id>
1

> <rmsd_to_cluster_rep>
0.00    

> <ligRMSD>
1.70    

> <ligCOMD>
0.83    

$$$$
tyk2_liang_ejmc_52_557
     RDKit          3D

 38 40  0  0  0  0  0  0  0  0999 V2000
   30.6597   34.3438   38.9735 Cl  0  0  0  0  0  0  0  0  0  0  0  0
   34.3779   30.3008   38.9994 Cl  0  0  0  0  0  0  0  0  0  0  0  0
   33.4250   33.1648   41.6549 C   0  0  0  0  0  0  0  0  0  0  0  0
   33.7512   33.4677   42.6391 H   0  0  0  0  0  0  0  0  0  0  0  0
   31.9452   32.7496   36.7434 N   0  0  0  0  0  0  0  0  0  0  0  0
   32.3091   33.6740   36.8146 H   0  0  0  0  0  0  0  0  0  0  0  0
   31.6822   30.7128   37.7375 O   0  0  0  0  0  0  0  0  0  0  0  0
   34.0290   32.0728   41.0210 C   0  0  0  0  0  0  0  0  0  0  0  0
   34.8171   31.5283   41.5198 H   0  0  0  0  0  0  0  0  0  0  0  0
   30.3868   31.7858   32.9702 N   0  0  0  0  0  0  0  0  0  0  0  0
   33.6126   31.6786   39.7417 C   0  0  0  0  0  0  0  0  0  0  0  0
   32.5892   32.3873   39.0813 C   0  0  0  0  0  0  0  0  0  0  0  0
   31.9563   33.4618   39.7398 C   0  0  0  0  0  0  0  0  0  0  0  0
   32.3911   33.8581   41.0136 C   0  0  0  0  0  0  0  0  0  0  0  0
   31.9171   34.6942   41.5058 H   0  0  0  0  0  0  0  0  0  0  0  0
   32.0347   31.8892   37.7938 C   0  0  0  0  0  0  0  0  0  0  0  0
   31.3819   32.4203   35.4746 C   0  0  0  0  0  0  0  0  0  0  0  0
   31.9552   32.9768   34.3207 C   0  0  0  0  0  0  0  0  0  0  0  0
   32.7983   33.6458   34.3851 H   0  0  0  0  0  0  0  0  0  0  0  0
   31.4100   32.6275   33.0755 C   0  0  0  0  0  0  0  0  0  0  0  0
   31.8168   33.0433   32.1629 H   0  0  0  0  0  0  0  0  0  0  0  0
   29.8545   31.2232   34.0535 C   0  0  0  0  0  0  0  0  0  0  0  0
   28.7701   30.3367   33.8323 N   0  0  0  0  0  0  0  0  0  0  0  0
   28.4897   29.1499   34.4211 C   0  0  0  0  0  0  0  0  0  0  0  0
   28.1458   30.6771   33.1361 H   0  0  0  0  0  0  0  0  0  0  0  0
   30.2688   31.5696   35.3383 C   0  0  0  0  0  0  0  0  0  0  0  0
   29.7558   31.1808   36.2011 H   0  0  0  0  0  0  0  0  0  0  0  0
   27.4353   28.5717   34.1709 O   0  0  0  0  0  0  0  0  0  0  0  0
   28.3928   27.2395   36.6414 N   0  0  0  0  0  0  0  0  0  0  0  0
   27.3892   27.2210   36.4585 H   0  0  0  0  0  0  0  0  0  0  0  0
   29.2654   26.9992   35.4565 C   0  0  0  0  0  0  0  0  0  0  0  0
   28.7714   26.5183   34.6060 H   0  0  0  0  0  0  0  0  0  0  0  0
   30.1472   26.4301   35.7652 H   0  0  0  0  0  0  0  0  0  0  0  0
   29.5215   28.5243   35.3528 C   0  0  0  0  0  0  0  0  0  0  0  0
   30.5712   28.7935   35.2107 H   0  0  0  0  0  0  0  0  0  0  0  0
   28.9934   28.5941   36.8093 C   0  0  0  0  0  0  0  0  0  0  0  0
   28.2677   29.3839   37.0290 H   0  0  0  0  0  0  0  0  0  0  0  0
   29.7839   28.5612   37.5650 H   0  0  0  0  0  0  0  0  0  0  0  0
  1 13  1  0
  2 11  1  0
  3  4  1  0
  3  8  2  0
  3 14  1  0
  5  6  1  0
  5 16  1  0
  5 17  1  0
  7 16  2  0
  8  9  1  0
  8 11  1  0
 10 20  2  0
 10 22  1  0
 11 12  2  0
 12 13  1  0
 12 16  1  0
 13 14  2  0
 14 15  1  0
 17 18  2  0
 17 26  1  0
 18 19  1  0
 18 20  1  0
 20 21  1  0
 22 23  1  0
 22 26  2  0
 23 24  1  0
 23 25  1  0
 24 28  2  0
 24 34  1  0
 26 27  1  0
 29 30  1  0
 29 31  1  0
 29 36  1  0
 31 32  1  0
 31 33  1  0
 31 34  1  0
 34 35  1  0
 34 36  1  0
 36 37  1  0
 36 38  1  0
M  END
> <intraLJ>
27.918    

> <intraEL>
-13.612   

> <intraDihe>
63.025    

> <interLJ>
0.000     

> <interEJ>
0.000     

> <gridLJ>
-8.671    

> <gridEL>
0.000     

> <totalE>
68.660    

> <LGFE>
-8.671  

> <LE>
-0.361  

> <SMILES>
O=C(Nc1ccnc(NC(=O)C2CNC2)c1)c1c(Cl)cccc1Cl

> <atom.dprop.GFE>
-0.5610 -1.1750 -0.0144 0.0000 -0.0840 0.0000 -0.6090 0.0215 0.0000 -1.1850 0.0182 0.0523 0.0848 -0.0033 0.0000 0.0000 -0.0982 0.0077 0.0000 -0.1808 0.0000 -0.0639 -0.0320 0.0000 0.0000 -0.1795 0.0000 -1.5970 -1.6130 0.0000 -0.4505 0.0000 0.0000 -0.4542 0.0000 -0.5544 0.0000 0.0000

> <atom.prop.CLASS>
CLBX CLBX BENC NCLA FORN NCLA FORO BENC NCLA IMIN BENC BENC BENC BENC NCLA NCLA BENC BENC NCLA GEHC NCLA GEHC FORN NCLA NCLA BENC NCLA FORO FORN NCLA PRPC NCLA NCLA PRPC NCLA PRPC NCLA NCLA

> <cluster_id>
1

> <rmsd_to_cluster_rep>
0.00    

> <ligRMSD>
3.13    

> <ligCOMD>
0.84    

$$$$
tyk2_liang_ejmc_53_262
     RDKit          3D

 40 42  0  0  1  0  0  0  0  0999 V2000
   28.8901   27.2170   35.2570 Cl  0  0  0  0  0  0  0  0  0  0  0  0
   29.8795   27.8168   40.6308 Cl  0  0  0  0  0  0  0  0  0  0  0  0
   27.4373   25.3975   38.5437 C   0  0  0  0  0  0  0  0  0  0  0  0
   26.7311   24.6104   38.7636 H   0  0  0  0  0  0  0  0  0  0  0  0
   30.1571   29.7389   37.9373 N   0  0  0  0  0  0  0  0  0  0  0  0
   29.3401   30.0317   38.4261 H   0  0  0  0  0  0  0  0  0  0  0  0
   31.3619   27.9735   37.1204 O   0  0  0  0  0  0  0  0  0  0  0  0
   28.1181   26.0396   39.5848 C   0  0  0  0  0  0  0  0  0  0  0  0
   27.9426   25.7416   40.6079 H   0  0  0  0  0  0  0  0  0  0  0  0
   32.9268   32.7472   37.0066 N   0  0  0  0  0  0  0  0  0  0  0  0
   29.0331   27.0645   39.3057 C   0  0  0  0  0  0  0  0  0  0  0  0
   29.2615   27.4608   37.9726 C   0  0  0  0  0  0  0  0  0  0  0  0
   28.6046   26.7844   36.9243 C   0  0  0  0  0  0  0  0  0  0  0  0
   27.6803   25.7710   37.2162 C   0  0  0  0  0  0  0  0  0  0  0  0
   27.1640   25.2684   36.4119 H   0  0  0  0  0  0  0  0  0  0  0  0
   30.3447   28.4227   37.6450 C   0  0  0  0  0  0  0  0  0  0  0  0
   31.0703   30.7893   37.6214 C   0  0  0  0  0  0  0  0  0  0  0  0
   32.3784   30.7102   38.1230 C   0  0  0  0  0  0  0  0  0  0  0  0
   32.6895   29.8814   38.7388 H   0  0  0  0  0  0  0  0  0  0  0  0
   33.2805   31.7304   37.7854 C   0  0  0  0  0  0  0  0  0  0  0  0
   34.2970   31.7088   38.1560 H   0  0  0  0  0  0  0  0  0  0  0  0
   31.6979   32.8310   36.5026 C   0  0  0  0  0  0  0  0  0  0  0  0
   31.4423   33.9613   35.6767 N   0  0  0  0  0  0  0  0  0  0  0  0
   30.8050   34.0139   34.4825 C   0  0  0  0  0  0  0  0  0  0  0  0
   31.8218   34.8011   36.0524 H   0  0  0  0  0  0  0  0  0  0  0  0
   30.7074   31.9060   36.8446 C   0  0  0  0  0  0  0  0  0  0  0  0
   29.6945   32.0353   36.5094 H   0  0  0  0  0  0  0  0  0  0  0  0
   30.5919   35.0915   33.9321 O   0  0  0  0  0  0  0  0  0  0  0  0
   28.5282   31.6699   32.6812 C   0  0  0  0  0  0  0  0  0  0  0  0
   27.5724   31.8866   32.1857 H   0  0  0  0  0  0  0  0  0  0  0  0
   28.4804   30.6273   33.0338 H   0  0  0  0  0  0  0  0  0  0  0  0
   28.8070   32.6181   33.8461 C   0  0  0  0  0  0  0  0  0  0  0  0
   28.4100   32.2485   34.7995 H   0  0  0  0  0  0  0  0  0  0  0  0
   28.3155   33.5875   33.6533 H   0  0  0  0  0  0  0  0  0  0  0  0
   30.3237   32.7510   33.8122 C   0  0  1  0  0  0  0  0  0  0  0  0
   30.8237   31.8368   34.1579 H   0  0  0  0  0  0  0  0  0  0  0  0
   30.6003   32.8082   32.4111 O   0  0  0  0  0  0  0  0  0  0  0  0
   29.7387   31.8661   31.7588 C   0  0  0  0  0  0  0  0  0  0  0  0
   30.3043   30.9334   31.6164 H   0  0  0  0  0  0  0  0  0  0  0  0
   29.4748   32.2669   30.7709 H   0  0  0  0  0  0  0  0  0  0  0  0
  1 13  1  0
  2 11  1  0
  3  4  1  0
  3  8  2  0
  3 14  1  0
  5  6  1  0
  5 16  1  0
  5 17  1  0
  7 16  2  0
  8  9  1  0
  8 11  1  0
 10 20  2  0
 10 22  1  0
 11 12  2  0
 12 13  1  0
 12 16  1  0
 13 14  2  0
 14 15  1  0
 17 18  2  0
 17 26  1  0
 18 19  1  0
 18 20  1  0
 20 21  1  0
 22 23  1  0
 22 26  2  0
 23 24  1  0
 23 25  1  0
 24 28  2  0
 24 35  1  0
 26 27  1  0
 29 30  1  0
 29 31  1  0
 29 32  1  0
 29 38  1  0
 32 33  1  0
 32 34  1  0
 32 35  1  0
 35 36  1  1
 35 37  1  0
 37 38  1  0
 38 39  1  0
 38 40  1  0
M  END
> <intraLJ>
21.374    

> <intraEL>
-12.192   

> <intraDihe>
39.339    

> <interLJ>
0.000     

> <interEJ>
0.000     

> <gridLJ>
-9.728    

> <gridEL>
0.000     

> <totalE>
38.792    

> <LGFE>
-9.728  

> <LE>
-0.389  

> <SMILES>
O=C(Nc1ccnc(NC(=O)[C@H]2CCCO2)c1)c1c(Cl)cccc1Cl

> <atom.dprop.GFE>
-1.2450 -1.0540 -0.0242 0.0000 -0.9600 0.0000 -0.8030 0.0738 0.0000 -0.5270 -0.0110 -0.1441 -0.2213 0.0020 0.0000 0.0000 -0.0584 0.0132 0.0000 -0.1885 0.0000 -0.1449 -0.4130 0.0000 0.0000 -0.0548 0.0000 -0.3410 -0.4752 0.0000 0.0000 -0.4805 0.0000 0.0000 -0.5368 0.0000 -1.9000 -0.2348 0.0000 0.0000

> <atom.prop.CLASS>
CLBX CLBX BENC NCLA FORN NCLA FORO BENC NCLA IMIN BENC BENC BENC BENC NCLA NCLA BENC BENC NCLA GEHC NCLA GEHC FORN NCLA NCLA BENC NCLA FORO PRPC NCLA NCLA PRPC NCLA NCLA PRPC NCLA DMEO PRPC NCLA NCLA

> <cluster_id>
1

> <rmsd_to_cluster_rep>
0.00    

> <ligRMSD>
7.36    

> <ligCOMD>
0.86    

$$$$
tyk2_liang_ejmc_54_563
     RDKit          3D

 37 38  0  0  0  0  0  0  0  0999 V2000
   31.0629   31.7860   38.9723 Cl  0  0  0  0  0  0  0  0  0  0  0  0
   31.3715   32.7697   33.5765 Cl  0  0  0  0  0  0  0  0  0  0  0  0
   32.6977   34.7621   36.8064 C   0  0  0  0  0  0  0  0  0  0  0  0
   33.2503   35.6695   37.0010 H   0  0  0  0  0  0  0  0  0  0  0  0
   29.4960   31.0338   35.2554 N   0  0  0  0  0  0  0  0  0  0  0  0
   29.1518   31.8566   34.8122 H   0  0  0  0  0  0  0  0  0  0  0  0
   31.1307   30.0891   36.5356 O   0  0  0  0  0  0  0  0  0  0  0  0
   32.4095   34.3852   35.4896 C   0  0  0  0  0  0  0  0  0  0  0  0
   32.7464   34.9989   34.6674 H   0  0  0  0  0  0  0  0  0  0  0  0
   27.3810   27.5348   34.3218 N   0  0  0  0  0  0  0  0  0  0  0  0
   31.6885   33.2107   35.2317 C   0  0  0  0  0  0  0  0  0  0  0  0
   31.2398   32.4069   36.2988 C   0  0  0  0  0  0  0  0  0  0  0  0
   31.5666   32.7701   37.6219 C   0  0  0  0  0  0  0  0  0  0  0  0
   32.2751   33.9555   37.8701 C   0  0  0  0  0  0  0  0  0  0  0  0
   32.5056   34.2396   38.8860 H   0  0  0  0  0  0  0  0  0  0  0  0
   30.6102   31.0842   36.0352 C   0  0  0  0  0  0  0  0  0  0  0  0
   28.7589   29.8443   34.9720 C   0  0  0  0  0  0  0  0  0  0  0  0
   28.3641   29.6024   33.6476 C   0  0  0  0  0  0  0  0  0  0  0  0
   28.6014   30.2992   32.8596 H   0  0  0  0  0  0  0  0  0  0  0  0
   27.6613   28.4201   33.3713 C   0  0  0  0  0  0  0  0  0  0  0  0
   27.3277   28.2024   32.3651 H   0  0  0  0  0  0  0  0  0  0  0  0
   27.7802   27.7255   35.5773 C   0  0  0  0  0  0  0  0  0  0  0  0
   27.4295   26.6978   36.4990 N   0  0  0  0  0  0  0  0  0  0  0  0
   28.0568   26.3605   37.6757 C   0  0  0  0  0  0  0  0  0  0  0  0
   29.3824   26.6948   37.7621 N   0  0  0  0  0  0  0  0  0  0  0  0
   30.1283   26.6921   38.9767 C   0  0  0  0  0  0  0  0  0  0  0  0
   31.2170   26.6597   38.7400 H   0  0  0  0  0  0  0  0  0  0  0  0
   29.8831   25.7633   39.5405 H   0  0  0  0  0  0  0  0  0  0  0  0
   29.8703   27.8948   39.8791 C   0  0  0  0  0  0  0  0  0  0  0  0
   30.1316   28.8346   39.3465 H   0  0  0  0  0  0  0  0  0  0  0  0
   30.4762   27.8300   40.8071 H   0  0  0  0  0  0  0  0  0  0  0  0
   28.7949   27.9391   40.1575 H   0  0  0  0  0  0  0  0  0  0  0  0
   29.8703   27.0159   36.9551 H   0  0  0  0  0  0  0  0  0  0  0  0
   26.7127   26.0973   36.1591 H   0  0  0  0  0  0  0  0  0  0  0  0
   28.4020   28.9144   35.9684 C   0  0  0  0  0  0  0  0  0  0  0  0
   28.6211   29.1057   37.0056 H   0  0  0  0  0  0  0  0  0  0  0  0
   27.4607   25.7647   38.5673 O   0  0  0  0  0  0  0  0  0  0  0  0
  1 13  1  0
  2 11  1  0
  3  4  1  0
  3  8  2  0
  3 14  1  0
  5  6  1  0
  5 16  1  0
  5 17  1  0
  7 16  2  0
  8  9  1  0
  8 11  1  0
 10 20  2  0
 10 22  1  0
 11 12  2  0
 12 13  1  0
 12 16  1  0
 13 14  2  0
 14 15  1  0
 17 18  2  0
 17 35  1  0
 18 19  1  0
 18 20  1  0
 20 21  1  0
 22 23  1  0
 22 35  2  0
 23 24  1  0
 23 34  1  0
 24 25  1  0
 24 37  2  0
 25 26  1  0
 25 33  1  0
 26 27  1  0
 26 28  1  0
 26 29  1  0
 29 30  1  0
 29 31  1  0
 29 32  1  0
 35 36  1  0
M  END
> <intraLJ>
23.461    

> <intraEL>
-20.617   

> <intraDihe>
21.051    

> <interLJ>
0.000     

> <interEJ>
0.000     

> <gridLJ>
-8.789    

> <gridEL>
0.000     

> <totalE>
15.106    

> <LGFE>
-8.789  

> <LE>
-0.382  

> <SMILES>
CCNC(=O)Nc1cc(NC(=O)c2c(Cl)cccc2Cl)ccn1

> <atom.dprop.GFE>
-0.2410 -1.5660 0.0579 0.0000 -0.6230 0.0000 -0.5020 0.0620 0.0000 -1.7190 0.0132 -0.0548 -0.0631 0.0237 0.0000 0.0000 -0.2911 -0.2710 0.0000 -0.1935 0.0000 -0.3453 -1.8690 0.0000 -0.7220 0.0999 0.0000 0.0000 0.1725 0.0000 0.0000 0.0000 0.0000 0.0000 -0.2806 0.0000 -0.4770

> <atom.prop.CLASS>
CLBX CLBX BENC NCLA FORN NCLA FORO BENC NCLA IMIN BENC BENC BENC BENC NCLA NCLA BENC BENC NCLA GEHC NCLA GEHC FORN NCLA FORN PRPC NCLA NCLA PRPC NCLA NCLA NCLA NCLA NCLA BENC NCLA FORO

> <cluster_id>
1

> <rmsd_to_cluster_rep>
0.00    

> <ligRMSD>
1.54    

> <ligCOMD>
0.96    

$$$$
tyk2_liang_ejmc_55_303
     RDKit          3D

 33 34  0  0  0  0  0  0  0  0999 V2000
   31.1581   32.0043   38.9668 Cl  0  0  0  0  0  0  0  0  0  0  0  0
   31.0899   32.7747   33.5316 Cl  0  0  0  0  0  0  0  0  0  0  0  0
   32.5356   34.9511   36.5877 C   0  0  0  0  0  0  0  0  0  0  0  0
   33.0622   35.8861   36.7107 H   0  0  0  0  0  0  0  0  0  0  0  0
   29.3863   31.0427   35.4058 N   0  0  0  0  0  0  0  0  0  0  0  0
   28.9743   31.8320   34.9596 H   0  0  0  0  0  0  0  0  0  0  0  0
   31.1491   30.2169   36.5933 O   0  0  0  0  0  0  0  0  0  0  0  0
   32.1822   34.5082   35.3077 C   0  0  0  0  0  0  0  0  0  0  0  0
   32.4426   35.0988   34.4419 H   0  0  0  0  0  0  0  0  0  0  0  0
   27.3615   27.4301   34.7475 N   0  0  0  0  0  0  0  0  0  0  0  0
   31.4941   33.2976   35.1433 C   0  0  0  0  0  0  0  0  0  0  0  0
   31.1433   32.5244   36.2677 C   0  0  0  0  0  0  0  0  0  0  0  0
   31.5378   32.9535   37.5518 C   0  0  0  0  0  0  0  0  0  0  0  0
   32.2126   34.1742   37.7074 C   0  0  0  0  0  0  0  0  0  0  0  0
   32.4944   34.5092   38.6945 H   0  0  0  0  0  0  0  0  0  0  0  0
   30.5510   31.1694   36.0977 C   0  0  0  0  0  0  0  0  0  0  0  0
   28.6876   29.8118   35.2193 C   0  0  0  0  0  0  0  0  0  0  0  0
   28.2177   29.5023   33.9335 C   0  0  0  0  0  0  0  0  0  0  0  0
   28.3748   30.1760   33.1064 H   0  0  0  0  0  0  0  0  0  0  0  0
   27.5495   28.2833   33.7472 C   0  0  0  0  0  0  0  0  0  0  0  0
   27.1645   28.0115   32.7729 H   0  0  0  0  0  0  0  0  0  0  0  0
   27.8258   27.6930   35.9681 C   0  0  0  0  0  0  0  0  0  0  0  0
   27.5471   26.6998   36.9452 N   0  0  0  0  0  0  0  0  0  0  0  0
   28.2029   26.4207   38.1223 C   0  0  0  0  0  0  0  0  0  0  0  0
   29.4327   26.9966   38.2309 O   0  0  0  0  0  0  0  0  0  0  0  0
   30.1575   26.7463   39.4466 C   0  0  0  0  0  0  0  0  0  0  0  0
   31.1261   27.2903   39.4180 H   0  0  0  0  0  0  0  0  0  0  0  0
   30.3687   25.6604   39.5605 H   0  0  0  0  0  0  0  0  0  0  0  0
   29.5820   27.1035   40.3288 H   0  0  0  0  0  0  0  0  0  0  0  0
   26.9236   26.0085   36.5952 H   0  0  0  0  0  0  0  0  0  0  0  0
   28.4402   28.9070   36.2720 C   0  0  0  0  0  0  0  0  0  0  0  0
   28.7226   29.1442   37.2836 H   0  0  0  0  0  0  0  0  0  0  0  0
   27.7168   25.6829   38.9742 O   0  0  0  0  0  0  0  0  0  0  0  0
  1 13  1  0
  2 11  1  0
  3  4  1  0
  3  8  2  0
  3 14  1  0
  5  6  1  0
  5 16  1  0
  5 17  1  0
  7 16  2  0
  8  9  1  0
  8 11  1  0
 10 20  2  0
 10 22  1  0
 11 12  2  0
 12 13  1  0
 12 16  1  0
 13 14  2  0
 14 15  1  0
 17 18  2  0
 17 31  1  0
 18 19  1  0
 18 20  1  0
 20 21  1  0
 22 23  1  0
 22 31  2  0
 23 24  1  0
 23 30  1  0
 24 25  1  0
 24 33  2  0
 25 26  1  0
 26 27  1  0
 26 28  1  0
 26 29  1  0
 31 32  1  0
M  END
> <intraLJ>
25.017    

> <intraEL>
-17.829   

> <intraDihe>
19.260    

> <interLJ>
0.000     

> <interEJ>
0.000     

> <gridLJ>
-8.905    

> <gridEL>
0.000     

> <totalE>
17.543    

> <LGFE>
-8.905  

> <LE>
-0.405  

> <SMILES>
COC(=O)Nc1cc(NC(=O)c2c(Cl)cccc2Cl)ccn1

> <atom.dprop.GFE>
-0.2410 -1.5660 0.2460 0.0000 -0.6230 0.0000 -0.5020 0.0610 0.0000 -1.7190 0.0132 -0.0548 -0.0631 0.0237 0.0000 0.0000 -0.3086 -0.2710 0.0000 -0.1935 0.0000 -0.3453 -1.8690 0.0000 -0.3510 0.0999 0.0000 0.0000 0.0000 0.0000 -0.2430 0.0000 -0.9980

> <atom.prop.CLASS>
CLBX CLBX BENC NCLA FORN NCLA FORO BENC NCLA IMIN BENC BENC BENC BENC NCLA NCLA BENC BENC NCLA GEHC NCLA GEHC FORN NCLA DMEO PRPC NCLA NCLA NCLA NCLA BENC NCLA FORO

> <cluster_id>
1

> <rmsd_to_cluster_rep>
0.00    

> <ligRMSD>
1.70    

> <ligCOMD>
0.99    

$$$$
tyk2_liang_jmc_01_3lxn_813
     RDKit          3D

 43 45  0  0  1  0  0  0  0  0999 V2000
   29.7394   31.9643   34.9550 C   0  0  1  0  0  0  0  0  0  0  0  0
   30.5047   31.1597   35.0176 H   0  0  0  0  0  0  0  0  0  0  0  0
   28.4636   31.1615   34.5889 C   0  0  0  0  0  0  0  0  0  0  0  0
   27.5643   31.8066   34.5525 H   0  0  0  0  0  0  0  0  0  0  0  0
   28.3052   30.3968   35.3852 H   0  0  0  0  0  0  0  0  0  0  0  0
   28.8378   31.5628   32.1965 C   0  0  0  0  0  0  0  0  0  0  0  0
   28.8998   31.1260   31.1766 H   0  0  0  0  0  0  0  0  0  0  0  0
   27.9972   32.2901   32.1878 H   0  0  0  0  0  0  0  0  0  0  0  0
   30.1580   32.2763   32.4847 C   0  0  0  0  0  0  0  0  0  0  0  0
   30.9765   31.5227   32.4628 H   0  0  0  0  0  0  0  0  0  0  0  0
   30.3633   33.0297   31.6940 H   0  0  0  0  0  0  0  0  0  0  0  0
   30.1450   32.9667   33.8668 C   0  0  1  0  0  0  0  0  0  0  0  0
   31.1742   33.3435   34.0593 H   0  0  0  0  0  0  0  0  0  0  0  0
   28.6163   30.5835   33.2621 N   0  0  0  0  0  0  0  0  0  0  0  0
   27.8588   28.5598   33.9757 O   0  0  0  0  0  0  0  0  0  0  0  0
   28.2169   29.3002   33.0596 C   0  0  0  0  0  0  0  0  0  0  0  0
   28.2316   28.8034   31.6524 C   0  0  0  0  0  0  0  0  0  0  0  0
   27.4813   29.3560   31.0464 H   0  0  0  0  0  0  0  0  0  0  0  0
   29.2407   28.9473   31.2093 H   0  0  0  0  0  0  0  0  0  0  0  0
   27.9283   27.3736   31.5805 C   0  0  0  0  0  0  0  0  0  0  0  0
   27.6977   26.2186   31.5437 N   0  0  0  0  0  0  0  0  0  0  0  0
   29.2266   34.2079   33.8894 C   0  0  0  0  0  0  0  0  0  0  0  0
   28.1610   33.9211   33.7792 H   0  0  0  0  0  0  0  0  0  0  0  0
   29.4930   34.8918   33.0560 H   0  0  0  0  0  0  0  0  0  0  0  0
   29.3476   34.7652   34.8417 H   0  0  0  0  0  0  0  0  0  0  0  0
   29.8406   32.4553   36.3035 N   0  0  0  0  0  0  0  0  0  0  0  0
   28.5341   32.7647   36.9001 C   0  0  0  0  0  0  0  0  0  0  0  0
   27.7079   32.8270   36.1713 H   0  0  0  0  0  0  0  0  0  0  0  0
   28.5295   33.7612   37.3942 H   0  0  0  0  0  0  0  0  0  0  0  0
   28.2656   32.0005   37.6638 H   0  0  0  0  0  0  0  0  0  0  0  0
   30.9965   32.8080   36.9748 C   0  0  0  0  0  0  0  0  0  0  0  0
   32.2596   32.1607   36.9483 C   0  0  0  0  0  0  0  0  0  0  0  0
   32.7992   31.0089   36.2625 C   0  0  0  0  0  0  0  0  0  0  0  0
   32.3029   30.3601   35.5596 H   0  0  0  0  0  0  0  0  0  0  0  0
   34.0967   30.8547   36.6509 C   0  0  0  0  0  0  0  0  0  0  0  0
   34.8191   30.1061   36.3516 H   0  0  0  0  0  0  0  0  0  0  0  0
   34.3826   31.8599   37.5519 N   0  0  0  0  0  0  0  0  0  0  0  0
   35.2690   31.9970   38.0153 H   0  0  0  0  0  0  0  0  0  0  0  0
   33.2965   32.6646   37.7504 C   0  0  0  0  0  0  0  0  0  0  0  0
   33.2113   33.7244   38.5543 N   0  0  0  0  0  0  0  0  0  0  0  0
   31.9907   34.3174   38.5404 C   0  0  0  0  0  0  0  0  0  0  0  0
   31.8536   35.1926   39.1757 H   0  0  0  0  0  0  0  0  0  0  0  0
   30.9182   33.9098   37.8066 N   0  0  0  0  0  0  0  0  0  0  0  0
  1  2  1  1
  1  3  1  0
  1 12  1  0
  1 26  1  0
  3  4  1  0
  3  5  1  0
  3 14  1  0
  6  7  1  0
  6  8  1  0
  6  9  1  0
  6 14  1  0
  9 10  1  0
  9 11  1  0
  9 12  1  0
 12 13  1  1
 12 22  1  0
 14 16  1  0
 15 16  2  0
 16 17  1  0
 17 18  1  0
 17 19  1  0
 17 20  1  0
 20 21  3  0
 22 23  1  0
 22 24  1  0
 22 25  1  0
 26 27  1  0
 26 31  1  0
 27 28  1  0
 27 29  1  0
 27 30  1  0
 31 32  2  0
 31 43  1  0
 32 33  1  0
 32 39  1  0
 33 34  1  0
 33 35  2  0
 35 36  1  0
 35 37  1  0
 37 38  1  0
 37 39  1  0
 39 40  2  0
 40 41  1  0
 41 42  1  0
 41 43  2  0
M  END
> <intraLJ>
20.611    

> <intraEL>
-7.809    

> <intraDihe>
28.034    

> <interLJ>
0.000     

> <interEJ>
0.000     

> <gridLJ>
-6.170    

> <gridEL>
0.000     

> <totalE>
34.665    

> <LGFE>
-6.170  

> <LE>
-0.268  

> <SMILES>
C[C@@H]1CCN(C(=O)CC#N)C[C@@H]1N(C)c1ncnc2[nH]ccc12

> <atom.dprop.GFE>
-0.4709 0.0000 -0.6111 0.0000 0.0000 -0.4752 0.0000 0.0000 -0.4689 0.0000 0.0000 -0.4675 0.0000 0.1219 -1.5970 0.0000 -0.2771 0.0000 0.0000 0.0000 0.0000 -0.1542 0.0000 0.0000 0.0000 -0.3550 0.0496 0.0000 0.0000 0.0000 -0.2068 -0.1265 -0.1342 0.0000 0.2184 0.0000 -0.4680 0.0000 -0.1901 -0.6360 0.0090 0.0000 0.0690

> <atom.prop.CLASS>
PRPC NCLA PRPC NCLA NCLA PRPC NCLA NCLA PRPC NCLA NCLA PRPC NCLA GEHC FORO NCLA PRPC NCLA NCLA NCLA NCLA PRPC NCLA NCLA NCLA GENA PRPC NCLA NCLA NCLA GEHC GEHC GEHC NCLA GEHC NCLA IMIH NCLA GEHC IMIN GEHC NCLA IMIN

> <cluster_id>
1

> <rmsd_to_cluster_rep>
0.00    

> <ligRMSD>
6.88    

> <ligCOMD>
1.31    

$$$$
tyk2_liang_jmc_02_4u5j_730
     RDKit          3D

 41 44  0  0  1  0  0  0  0  0999 V2000
   33.3545   31.9132   37.7650 N   0  0  0  0  0  0  0  0  0  0  0  0
   33.5880   32.1249   39.1065 C   0  0  0  0  0  0  0  0  0  0  0  0
   34.4191   31.5762   39.5492 H   0  0  0  0  0  0  0  0  0  0  0  0
   32.9459   33.0211   39.9217 N   0  0  0  0  0  0  0  0  0  0  0  0
   31.9897   33.7184   39.2947 C   0  0  0  0  0  0  0  0  0  0  0  0
   31.2328   34.7600   39.7663 N   0  0  0  0  0  0  0  0  0  0  0  0
   30.4082   35.2640   38.7727 C   0  0  0  0  0  0  0  0  0  0  0  0
   29.7334   36.0949   38.9323 H   0  0  0  0  0  0  0  0  0  0  0  0
   31.2923   35.1149   40.7104 H   0  0  0  0  0  0  0  0  0  0  0  0
   31.6241   33.5459   37.9610 C   0  0  0  0  0  0  0  0  0  0  0  0
   30.6295   34.5343   37.6418 C   0  0  0  0  0  0  0  0  0  0  0  0
   30.1457   34.6961   36.6920 H   0  0  0  0  0  0  0  0  0  0  0  0
   32.2692   32.5105   37.2457 C   0  0  0  0  0  0  0  0  0  0  0  0
   31.1239   32.3299   33.8656 N   0  0  0  0  0  0  0  0  0  0  0  0
   30.0652   32.3032   32.8962 C   0  0  2  0  0  0  0  0  0  0  0  0
   30.5381   31.9565   31.9481 H   0  0  0  0  0  0  0  0  0  0  0  0
   29.5112   33.7388   32.6760 C   0  0  0  0  0  0  0  0  0  0  0  0
   30.3540   34.4571   32.5835 H   0  0  0  0  0  0  0  0  0  0  0  0
   28.8920   34.0444   33.5464 H   0  0  0  0  0  0  0  0  0  0  0  0
   30.9704   32.6964   35.1665 C   0  0  0  0  0  0  0  0  0  0  0  0
   30.0445   33.0916   35.5623 H   0  0  0  0  0  0  0  0  0  0  0  0
   32.1210   32.3597   35.8096 C   0  0  0  0  0  0  0  0  0  0  0  0
   32.9316   31.8037   34.7852 C   0  0  0  0  0  0  0  0  0  0  0  0
   33.9445   31.4442   34.9178 H   0  0  0  0  0  0  0  0  0  0  0  0
   32.3383   31.8008   33.6046 N   0  0  0  0  0  0  0  0  0  0  0  0
   28.6692   33.8749   31.4822 C   0  0  0  0  0  0  0  0  0  0  0  0
   27.9784   33.9171   30.5277 N   0  0  0  0  0  0  0  0  0  0  0  0
   27.3861   29.5254   32.6240 C   0  0  0  0  0  0  0  0  0  0  0  0
   27.2992   28.7378   31.8629 H   0  0  0  0  0  0  0  0  0  0  0  0
   26.3583   29.8004   32.9088 H   0  0  0  0  0  0  0  0  0  0  0  0
   28.1406   30.7516   32.0869 C   0  0  0  0  0  0  0  0  0  0  0  0
   27.4565   31.4742   31.6304 H   0  0  0  0  0  0  0  0  0  0  0  0
   28.8376   30.4367   31.2933 H   0  0  0  0  0  0  0  0  0  0  0  0
   28.9353   31.3057   33.2796 C   0  0  0  0  0  0  0  0  0  0  0  0
   28.2332   31.8261   33.9562 H   0  0  0  0  0  0  0  0  0  0  0  0
   29.3696   30.0080   33.9797 C   0  0  0  0  0  0  0  0  0  0  0  0
   29.6729   30.1547   35.0243 H   0  0  0  0  0  0  0  0  0  0  0  0
   30.2352   29.5723   33.4546 H   0  0  0  0  0  0  0  0  0  0  0  0
   28.1681   29.0590   33.8626 C   0  0  0  0  0  0  0  0  0  0  0  0
   27.5318   29.1352   34.7585 H   0  0  0  0  0  0  0  0  0  0  0  0
   28.4823   28.0089   33.7903 H   0  0  0  0  0  0  0  0  0  0  0  0
  1  2  2  0
  1 13  1  0
  2  3  1  0
  2  4  1  0
  4  5  2  0
  5  6  1  0
  5 10  1  0
  6  7  1  0
  6  9  1  0
  7  8  1  0
  7 11  2  0
 10 11  1  0
 10 13  2  0
 11 12  1  0
 13 22  1  0
 14 15  1  0
 14 20  1  0
 14 25  1  0
 15 16  1  6
 15 17  1  0
 15 34  1  0
 17 18  1  0
 17 19  1  0
 17 26  1  0
 20 21  1  0
 20 22  2  0
 22 23  1  0
 23 24  1  0
 23 25  2  0
 26 27  3  0
 28 29  1  0
 28 30  1  0
 28 31  1  0
 28 39  1  0
 31 32  1  0
 31 33  1  0
 31 34  1  0
 34 35  1  0
 34 36  1  0
 36 37  1  0
 36 38  1  0
 36 39  1  0
 39 40  1  0
 39 41  1  0
M  END
> <intraLJ>
15.316    

> <intraEL>
2.837     

> <intraDihe>
19.090    

> <interLJ>
0.000     

> <interEJ>
0.000     

> <gridLJ>
-5.553    

> <gridEL>
0.000     

> <totalE>
31.689    

> <LGFE>
-5.553  

> <LE>
-0.241  

> <SMILES>
N#CC[C@H](C1CCCC1)n1cc(-c2ncnc3[nH]ccc23)cn1

> <atom.dprop.GFE>
-0.5270 -0.0356 0.0000 -0.3830 0.0886 0.1140 0.0280 0.0000 0.0000 -0.1918 -0.1049 0.0000 -0.0304 -0.1722 -0.4689 0.0000 -0.4093 0.0000 0.0000 -0.0223 0.0000 -0.0609 -0.0833 0.0000 0.0910 0.0000 0.0000 -0.6061 0.0000 0.0000 -0.6194 0.0000 0.0000 -0.6287 0.0000 -0.7419 0.0000 0.0000 -0.7892 0.0000 0.0000

> <atom.prop.CLASS>
IMIN GEHC NCLA IMIN GEHC IMIH GEHC NCLA NCLA GEHC GEHC NCLA BENC GEHC PRPC NCLA PRPC NCLA NCLA GEHC NCLA GEHC GEHC NCLA IMIN NCLA NCLA PRPC NCLA NCLA PRPC NCLA NCLA PRPC NCLA PRPC NCLA NCLA PRPC NCLA NCLA

> <cluster_id>
1

> <rmsd_to_cluster_rep>
0.00    

> <ligRMSD>
6.39    

> <ligCOMD>
1.66    

$$$$
tyk2_liang_jmc_04_896
     RDKit          3D

 38 40  0  0  0  0  0  0  0  0999 V2000
   31.2414   32.8208   38.2033 Cl  0  0  0  0  0  0  0  0  0  0  0  0
   31.1837   32.7674   32.7159 Cl  0  0  0  0  0  0  0  0  0  0  0  0
   32.6884   35.3514   35.4106 C   0  0  0  0  0  0  0  0  0  0  0  0
   33.3878   36.5557   35.3804 N   0  0  0  0  0  0  0  0  0  0  0  0
   33.6365   36.9539   36.2633 H   0  0  0  0  0  0  0  0  0  0  0  0
   33.6149   36.9212   34.4777 H   0  0  0  0  0  0  0  0  0  0  0  0
   29.4516   31.3713   34.8090 N   0  0  0  0  0  0  0  0  0  0  0  0
   29.0664   32.0915   34.2390 H   0  0  0  0  0  0  0  0  0  0  0  0
   31.1764   30.6984   36.1397 O   0  0  0  0  0  0  0  0  0  0  0  0
   32.3190   34.7233   34.2141 C   0  0  0  0  0  0  0  0  0  0  0  0
   32.5882   35.1676   33.2674 H   0  0  0  0  0  0  0  0  0  0  0  0
   27.3236   27.7555   34.6881 N   0  0  0  0  0  0  0  0  0  0  0  0
   31.6027   33.5176   34.2318 C   0  0  0  0  0  0  0  0  0  0  0  0
   31.2364   32.9293   35.4581 C   0  0  0  0  0  0  0  0  0  0  0  0
   31.6431   33.5386   36.6629 C   0  0  0  0  0  0  0  0  0  0  0  0
   32.3469   34.7540   36.6331 C   0  0  0  0  0  0  0  0  0  0  0  0
   32.6353   35.2243   37.5612 H   0  0  0  0  0  0  0  0  0  0  0  0
   30.6108   31.5770   35.4921 C   0  0  0  0  0  0  0  0  0  0  0  0
   28.7200   30.1450   34.8057 C   0  0  0  0  0  0  0  0  0  0  0  0
   28.1053   29.7379   33.6113 C   0  0  0  0  0  0  0  0  0  0  0  0
   28.1761   30.3361   32.7170 H   0  0  0  0  0  0  0  0  0  0  0  0
   27.4070   28.5207   33.6056 C   0  0  0  0  0  0  0  0  0  0  0  0
   26.9138   28.1761   32.7060 H   0  0  0  0  0  0  0  0  0  0  0  0
   27.9218   28.1136   35.8216 C   0  0  0  0  0  0  0  0  0  0  0  0
   27.7828   27.2093   36.9046 N   0  0  0  0  0  0  0  0  0  0  0  0
   28.6719   26.9675   37.8897 C   0  0  0  0  0  0  0  0  0  0  0  0
   26.9520   26.6640   36.8553 H   0  0  0  0  0  0  0  0  0  0  0  0
   28.5808   29.3372   35.9515 C   0  0  0  0  0  0  0  0  0  0  0  0
   28.9795   29.6454   36.9030 H   0  0  0  0  0  0  0  0  0  0  0  0
   28.4064   26.1426   38.7580 O   0  0  0  0  0  0  0  0  0  0  0  0
   31.0492   27.3243   36.8409 C   0  0  0  0  0  0  0  0  0  0  0  0
   31.6873   28.1437   36.5518 H   0  0  0  0  0  0  0  0  0  0  0  0
   30.7675   26.6098   36.0845 H   0  0  0  0  0  0  0  0  0  0  0  0
   30.0349   27.6163   37.9409 C   0  0  0  0  0  0  0  0  0  0  0  0
   30.0406   28.6152   38.3478 H   0  0  0  0  0  0  0  0  0  0  0  0
   31.2613   26.7686   38.2510 C   0  0  0  0  0  0  0  0  0  0  0  0
   31.1139   25.7076   38.3714 H   0  0  0  0  0  0  0  0  0  0  0  0
   32.0356   27.2422   38.8325 H   0  0  0  0  0  0  0  0  0  0  0  0
  1 15  1  0
  2 13  1  0
  3  4  1  0
  3 10  2  0
  3 16  1  0
  4  5  1  0
  4  6  1  0
  7  8  1  0
  7 18  1  0
  7 19  1  0
  9 18  2  0
 10 11  1  0
 10 13  1  0
 12 22  2  0
 12 24  1  0
 13 14  2  0
 14 15  1  0
 14 18  1  0
 15 16  2  0
 16 17  1  0
 19 20  2  0
 19 28  1  0
 20 21  1  0
 20 22  1  0
 22 23  1  0
 24 25  1  0
 24 28  2  0
 25 26  1  0
 25 27  1  0
 26 30  2  0
 26 34  1  0
 28 29  1  0
 31 32  1  0
 31 33  1  0
 31 34  1  0
 31 36  1  0
 34 35  1  0
 34 36  1  0
 36 37  1  0
 36 38  1  0
M  END
> <intraLJ>
25.615    

> <intraEL>
-17.036   

> <intraDihe>
38.745    

> <interLJ>
0.000     

> <interEJ>
0.000     

> <gridLJ>
-7.084    

> <gridEL>
0.000     

> <totalE>
40.240    

> <LGFE>
-7.084  

> <LE>
-0.295  

> <SMILES>
Nc1cc(Cl)c(C(=O)Nc2ccnc(NC(=O)C3CC3)c2)c(Cl)c1

> <atom.dprop.GFE>
-0.5900 -1.7850 0.2961 0.0260 0.0000 0.0000 -0.3730 0.0000 -0.5020 0.2460 0.0000 -1.7190 0.0077 0.0222 0.0065 0.0307 0.0000 0.0000 -0.2911 -0.2710 0.0000 -0.1935 0.0000 -0.1675 -1.4000 0.0000 0.0000 -0.2806 0.0000 -0.9530 0.3989 0.0000 0.0000 -0.0470 0.0000 0.4549 0.0000 0.0000

> <atom.prop.CLASS>
CLBX CLBX BENC FORN NCLA NCLA FORN NCLA FORO BENC NCLA IMIN BENC BENC BENC BENC NCLA NCLA BENC BENC NCLA GEHC NCLA GEHC FORN NCLA NCLA BENC NCLA FORO PRPC NCLA NCLA PRPC NCLA PRPC NCLA NCLA

> <cluster_id>
1

> <rmsd_to_cluster_rep>
0.00    

> <ligRMSD>
1.83    

> <ligCOMD>
0.67    

$$$$
tyk2_liang_jmc_05_853
     RDKit          3D

 43 45  0  0  0  0  0  0  0  0999 V2000
   31.3747   32.0560   38.6630 Cl  0  0  0  0  0  0  0  0  0  0  0  0
   31.2759   32.7735   33.1767 Cl  0  0  0  0  0  0  0  0  0  0  0  0
   32.7079   34.9429   36.2746 C   0  0  0  0  0  0  0  0  0  0  0  0
   33.3929   36.1829   36.4435 N   0  0  0  0  0  0  0  0  0  0  0  0
   33.0700   36.8850   35.8154 H   0  0  0  0  0  0  0  0  0  0  0  0
   29.5469   31.0760   35.1722 N   0  0  0  0  0  0  0  0  0  0  0  0
   29.1389   31.8832   34.7552 H   0  0  0  0  0  0  0  0  0  0  0  0
   31.3581   30.2015   36.2630 O   0  0  0  0  0  0  0  0  0  0  0  0
   32.4193   34.4780   34.9788 C   0  0  0  0  0  0  0  0  0  0  0  0
   32.7263   35.0561   34.1209 H   0  0  0  0  0  0  0  0  0  0  0  0
   27.3733   27.5523   34.6287 N   0  0  0  0  0  0  0  0  0  0  0  0
   31.7167   33.2711   34.7919 C   0  0  0  0  0  0  0  0  0  0  0  0
   31.3496   32.5021   35.9184 C   0  0  0  0  0  0  0  0  0  0  0  0
   31.6388   32.9754   37.2076 C   0  0  0  0  0  0  0  0  0  0  0  0
   32.2348   34.2117   37.3669 C   0  0  0  0  0  0  0  0  0  0  0  0
   32.3805   34.5637   38.3740 H   0  0  0  0  0  0  0  0  0  0  0  0
   30.7503   31.1606   35.7901 C   0  0  0  0  0  0  0  0  0  0  0  0
   28.7828   29.8859   35.0356 C   0  0  0  0  0  0  0  0  0  0  0  0
   28.1732   29.6387   33.7973 C   0  0  0  0  0  0  0  0  0  0  0  0
   28.2627   30.3383   32.9814 H   0  0  0  0  0  0  0  0  0  0  0  0
   27.4640   28.4404   33.6426 C   0  0  0  0  0  0  0  0  0  0  0  0
   26.9738   28.2089   32.7061 H   0  0  0  0  0  0  0  0  0  0  0  0
   27.9672   27.7564   35.8042 C   0  0  0  0  0  0  0  0  0  0  0  0
   27.8382   26.7238   36.7767 N   0  0  0  0  0  0  0  0  0  0  0  0
   28.7439   26.3503   37.7137 C   0  0  0  0  0  0  0  0  0  0  0  0
   26.9855   26.2172   36.6972 H   0  0  0  0  0  0  0  0  0  0  0  0
   28.6262   28.9546   36.0803 C   0  0  0  0  0  0  0  0  0  0  0  0
   29.0318   29.1445   37.0596 H   0  0  0  0  0  0  0  0  0  0  0  0
   28.4774   25.4572   38.5138 O   0  0  0  0  0  0  0  0  0  0  0  0
   31.1229   26.7809   36.6684 C   0  0  0  0  0  0  0  0  0  0  0  0
   31.7703   27.6204   36.4732 H   0  0  0  0  0  0  0  0  0  0  0  0
   30.8226   26.1667   35.8351 H   0  0  0  0  0  0  0  0  0  0  0  0
   30.1257   26.9511   37.8085 C   0  0  0  0  0  0  0  0  0  0  0  0
   30.1520   27.8936   38.3324 H   0  0  0  0  0  0  0  0  0  0  0  0
   31.3420   26.0549   37.9985 C   0  0  0  0  0  0  0  0  0  0  0  0
   31.1791   24.9894   37.9914 H   0  0  0  0  0  0  0  0  0  0  0  0
   32.1279   26.4442   38.6253 H   0  0  0  0  0  0  0  0  0  0  0  0
   34.1988   36.5857   37.4709 C   0  0  0  0  0  0  0  0  0  0  0  0
   34.8923   35.5890   38.3543 C   0  0  0  0  0  0  0  0  0  0  0  0
   35.0784   34.6355   37.8169 H   0  0  0  0  0  0  0  0  0  0  0  0
   34.2845   35.3913   39.2632 H   0  0  0  0  0  0  0  0  0  0  0  0
   35.8733   35.9971   38.6802 H   0  0  0  0  0  0  0  0  0  0  0  0
   34.3850   37.7795   37.6807 O   0  0  0  0  0  0  0  0  0  0  0  0
  1 14  1  0
  2 12  1  0
  3  4  1  0
  3  9  2  0
  3 15  1  0
  4  5  1  0
  4 38  1  0
  6  7  1  0
  6 17  1  0
  6 18  1  0
  8 17  2  0
  9 10  1  0
  9 12  1  0
 11 21  2  0
 11 23  1  0
 12 13  2  0
 13 14  1  0
 13 17  1  0
 14 15  2  0
 15 16  1  0
 18 19  2  0
 18 27  1  0
 19 20  1  0
 19 21  1  0
 21 22  1  0
 23 24  1  0
 23 27  2  0
 24 25  1  0
 24 26  1  0
 25 29  2  0
 25 33  1  0
 27 28  1  0
 30 31  1  0
 30 32  1  0
 30 33  1  0
 30 35  1  0
 33 34  1  0
 33 35  1  0
 35 36  1  0
 35 37  1  0
 38 39  1  0
 38 43  2  0
 39 40  1  0
 39 41  1  0
 39 42  1  0
M  END
> <intraLJ>
24.088    

> <intraEL>
-22.995   

> <intraDihe>
47.971    

> <interLJ>
0.000     

> <interEJ>
0.000     

> <gridLJ>
-7.185    

> <gridEL>
0.000     

> <totalE>
41.880    

> <LGFE>
-7.185  

> <LE>
-0.266  

> <SMILES>
CC(=O)Nc1cc(Cl)c(C(=O)Nc2ccnc(NC(=O)C3CC3)c2)c(Cl)c1

> <atom.dprop.GFE>
-0.2410 -1.5660 0.2460 -0.1010 0.0000 -0.6230 0.0000 -0.5020 0.0620 0.0000 -1.7190 0.0077 -0.0982 -0.0631 0.0237 0.0000 0.0000 -0.3086 -0.2710 0.0000 -0.1935 0.0000 -0.3453 -1.8690 0.0000 0.0000 -0.2430 0.0000 -0.6160 0.3989 0.0000 0.0000 -0.0470 0.0000 1.3443 0.0000 0.0000 0.0000 0.0896 0.0000 0.0000 0.0000 -0.5500

> <atom.prop.CLASS>
CLBX CLBX BENC FORN NCLA FORN NCLA FORO BENC NCLA IMIN BENC BENC BENC BENC NCLA NCLA BENC BENC NCLA GEHC NCLA GEHC FORN NCLA NCLA BENC NCLA FORO PRPC NCLA NCLA PRPC NCLA PRPC NCLA NCLA NCLA PRPC NCLA NCLA NCLA FORO

> <cluster_id>
1

> <rmsd_to_cluster_rep>
0.00    

> <ligRMSD>
1.73    

> <ligCOMD>
0.74    

$$$$
tyk2_liang_jmc_06_313
     RDKit          3D

 44 46  0  0  0  0  0  0  0  0999 V2000
   31.2377   32.1838   38.7930 Cl  0  0  0  0  0  0  0  0  0  0  0  0
   31.2642   32.7705   33.3048 Cl  0  0  0  0  0  0  0  0  0  0  0  0
   32.6950   35.0110   36.3452 C   0  0  0  0  0  0  0  0  0  0  0  0
   33.4297   36.2213   36.4744 N   0  0  0  0  0  0  0  0  0  0  0  0
   32.9471   36.9425   37.0099 H   0  0  0  0  0  0  0  0  0  0  0  0
   29.5023   31.1058   35.2582 N   0  0  0  0  0  0  0  0  0  0  0  0
   29.0988   31.8945   34.8030 H   0  0  0  0  0  0  0  0  0  0  0  0
   31.2765   30.2902   36.4465 O   0  0  0  0  0  0  0  0  0  0  0  0
   32.3381   34.5426   35.0677 C   0  0  0  0  0  0  0  0  0  0  0  0
   32.6212   35.1046   34.1904 H   0  0  0  0  0  0  0  0  0  0  0  0
   27.3810   27.5406   34.7092 N   0  0  0  0  0  0  0  0  0  0  0  0
   31.6361   33.3335   34.9143 C   0  0  0  0  0  0  0  0  0  0  0  0
   31.2660   32.5864   36.0534 C   0  0  0  0  0  0  0  0  0  0  0  0
   31.6414   33.0423   37.3300 C   0  0  0  0  0  0  0  0  0  0  0  0
   32.3299   34.2421   37.4638 C   0  0  0  0  0  0  0  0  0  0  0  0
   32.5950   34.5745   38.4568 H   0  0  0  0  0  0  0  0  0  0  0  0
   30.6766   31.2312   35.9292 C   0  0  0  0  0  0  0  0  0  0  0  0
   28.7639   29.8957   35.1160 C   0  0  0  0  0  0  0  0  0  0  0  0
   28.1699   29.6305   33.8730 C   0  0  0  0  0  0  0  0  0  0  0  0
   28.2577   30.3260   33.0535 H   0  0  0  0  0  0  0  0  0  0  0  0
   27.4755   28.4227   33.7184 C   0  0  0  0  0  0  0  0  0  0  0  0
   26.9979   28.1803   32.7781 H   0  0  0  0  0  0  0  0  0  0  0  0
   27.9600   27.7598   35.8892 C   0  0  0  0  0  0  0  0  0  0  0  0
   27.8250   26.7327   36.8672 N   0  0  0  0  0  0  0  0  0  0  0  0
   28.7348   26.3485   37.7956 C   0  0  0  0  0  0  0  0  0  0  0  0
   26.9651   26.2370   36.7967 H   0  0  0  0  0  0  0  0  0  0  0  0
   28.6073   28.9665   36.1634 C   0  0  0  0  0  0  0  0  0  0  0  0
   28.9985   29.1670   37.1464 H   0  0  0  0  0  0  0  0  0  0  0  0
   28.4663   25.4589   38.5991 O   0  0  0  0  0  0  0  0  0  0  0  0
   31.0917   26.7795   36.7037 C   0  0  0  0  0  0  0  0  0  0  0  0
   31.7431   27.6170   36.5130 H   0  0  0  0  0  0  0  0  0  0  0  0
   30.7643   26.1892   35.8633 H   0  0  0  0  0  0  0  0  0  0  0  0
   30.1247   26.9322   37.8719 C   0  0  0  0  0  0  0  0  0  0  0  0
   30.1743   27.8610   38.4181 H   0  0  0  0  0  0  0  0  0  0  0  0
   31.3351   26.0186   38.0098 C   0  0  0  0  0  0  0  0  0  0  0  0
   31.1603   24.9554   37.9806 H   0  0  0  0  0  0  0  0  0  0  0  0
   32.1404   26.3840   38.6264 H   0  0  0  0  0  0  0  0  0  0  0  0
   35.0915   36.2443   36.6489 S   0  0  0  0  0  0  0  0  0  0  0  0
   35.7265   36.2400   34.9765 C   0  0  0  0  0  0  0  0  0  0  0  0
   36.8367   36.2339   35.0113 H   0  0  0  0  0  0  0  0  0  0  0  0
   35.3799   37.1507   34.4440 H   0  0  0  0  0  0  0  0  0  0  0  0
   35.3689   35.3338   34.4440 H   0  0  0  0  0  0  0  0  0  0  0  0
   35.4912   37.4885   37.2538 O   0  0  0  0  0  0  0  0  0  0  0  0
   35.4938   35.0016   37.2543 O   0  0  0  0  0  0  0  0  0  0  0  0
  1 14  1  0
  2 12  1  0
  3  4  1  0
  3  9  2  0
  3 15  1  0
  4  5  1  0
  4 38  1  0
  6  7  1  0
  6 17  1  0
  6 18  1  0
  8 17  2  0
  9 10  1  0
  9 12  1  0
 11 21  2  0
 11 23  1  0
 12 13  2  0
 13 14  1  0
 13 17  1  0
 14 15  2  0
 15 16  1  0
 18 19  2  0
 18 27  1  0
 19 20  1  0
 19 21  1  0
 21 22  1  0
 23 24  1  0
 23 27  2  0
 24 25  1  0
 24 26  1  0
 25 29  2  0
 25 33  1  0
 27 28  1  0
 30 31  1  0
 30 32  1  0
 30 33  1  0
 30 35  1  0
 33 34  1  0
 33 35  1  0
 35 36  1  0
 35 37  1  0
 38 39  1  0
 38 43  2  0
 38 44  2  0
 39 40  1  0
 39 41  1  0
 39 42  1  0
M  END
> <intraLJ>
22.137    

> <intraEL>
-24.150   

> <intraDihe>
46.218    

> <interLJ>
0.000     

> <interEJ>
0.000     

> <gridLJ>
-7.274    

> <gridEL>
0.000     

> <totalE>
36.931    

> <LGFE>
-7.274  

> <LE>
-0.260  

> <SMILES>
CS(=O)(=O)Nc1cc(Cl)c(C(=O)Nc2ccnc(NC(=O)C3CC3)c2)c(Cl)c1

> <atom.dprop.GFE>
-0.2410 -1.5660 0.2460 -0.1010 0.0000 -0.6230 0.0000 -0.5020 0.0610 0.0000 -1.7190 0.0077 -0.0548 -0.0631 0.0237 0.0000 0.0000 -0.3086 -0.2710 0.0000 -0.1935 0.0000 -0.3453 -1.8690 0.0000 0.0000 -0.2430 0.0000 -0.6160 0.3989 0.0000 0.0000 -0.0470 0.0000 1.3443 0.0000 0.0000 0.0000 0.2801 0.0000 0.0000 0.0000 -0.4590 -0.4130

> <atom.prop.CLASS>
CLBX CLBX BENC FORN NCLA FORN NCLA FORO BENC NCLA IMIN BENC BENC BENC BENC NCLA NCLA BENC BENC NCLA GEHC NCLA GEHC FORN NCLA NCLA BENC NCLA FORO PRPC NCLA NCLA PRPC NCLA PRPC NCLA NCLA NCLA PRPC NCLA NCLA NCLA FORO FORO

> <cluster_id>
1

> <rmsd_to_cluster_rep>
0.00    

> <ligRMSD>
2.09    

> <ligCOMD>
1.04    

$$$$
tyk2_liang_jmc_07_739
     RDKit          3D

 37 39  0  0  0  0  0  0  0  0999 V2000
   31.2654   32.8299   38.0842 Cl  0  0  0  0  0  0  0  0  0  0  0  0
   31.2444   32.7697   32.5959 Cl  0  0  0  0  0  0  0  0  0  0  0  0
   32.7171   35.3612   35.2982 C   0  0  0  0  0  0  0  0  0  0  0  0
   33.4232   36.5864   35.2612 O   0  0  0  0  0  0  0  0  0  0  0  0
   33.5818   36.8705   36.1643 H   0  0  0  0  0  0  0  0  0  0  0  0
   29.4852   31.3787   34.7105 N   0  0  0  0  0  0  0  0  0  0  0  0
   29.0844   32.1037   34.1575 H   0  0  0  0  0  0  0  0  0  0  0  0
   31.2417   30.6969   35.9942 O   0  0  0  0  0  0  0  0  0  0  0  0
   32.3610   34.7328   34.0990 C   0  0  0  0  0  0  0  0  0  0  0  0
   32.6368   35.1809   33.1559 H   0  0  0  0  0  0  0  0  0  0  0  0
   27.3735   27.7532   34.5958 N   0  0  0  0  0  0  0  0  0  0  0  0
   31.6501   33.5239   34.1134 C   0  0  0  0  0  0  0  0  0  0  0  0
   31.2783   32.9356   35.3384 C   0  0  0  0  0  0  0  0  0  0  0  0
   31.6739   33.5479   36.5458 C   0  0  0  0  0  0  0  0  0  0  0  0
   32.3720   34.7669   36.5207 C   0  0  0  0  0  0  0  0  0  0  0  0
   32.6519   35.2394   37.4501 H   0  0  0  0  0  0  0  0  0  0  0  0
   30.6585   31.5808   35.3700 C   0  0  0  0  0  0  0  0  0  0  0  0
   28.7592   30.1492   34.7091 C   0  0  0  0  0  0  0  0  0  0  0  0
   28.1575   29.7309   33.5120 C   0  0  0  0  0  0  0  0  0  0  0  0
   28.2341   30.3228   32.6141 H   0  0  0  0  0  0  0  0  0  0  0  0
   27.4641   28.5108   33.5087 C   0  0  0  0  0  0  0  0  0  0  0  0
   26.9809   28.1577   32.6070 H   0  0  0  0  0  0  0  0  0  0  0  0
   27.9596   28.1223   35.7320 C   0  0  0  0  0  0  0  0  0  0  0  0
   27.8135   27.2254   36.8198 N   0  0  0  0  0  0  0  0  0  0  0  0
   28.6993   26.9848   37.8078 C   0  0  0  0  0  0  0  0  0  0  0  0
   26.9802   26.6838   36.7718 H   0  0  0  0  0  0  0  0  0  0  0  0
   28.6125   29.3493   35.8594 C   0  0  0  0  0  0  0  0  0  0  0  0
   29.0006   29.6660   36.8126 H   0  0  0  0  0  0  0  0  0  0  0  0
   28.4271   26.1659   38.6797 O   0  0  0  0  0  0  0  0  0  0  0  0
   31.0703   27.3437   36.7466 C   0  0  0  0  0  0  0  0  0  0  0  0
   31.7107   28.1633   36.4634 H   0  0  0  0  0  0  0  0  0  0  0  0
   30.7793   26.6406   35.9831 H   0  0  0  0  0  0  0  0  0  0  0  0
   30.0658   27.6265   37.8579 C   0  0  0  0  0  0  0  0  0  0  0  0
   30.0797   28.6200   38.2778 H   0  0  0  0  0  0  0  0  0  0  0  0
   31.2899   26.7685   38.1478 C   0  0  0  0  0  0  0  0  0  0  0  0
   31.1377   25.7068   38.2555 H   0  0  0  0  0  0  0  0  0  0  0  0
   32.0712   27.2304   38.7294 H   0  0  0  0  0  0  0  0  0  0  0  0
  1 14  1  0
  2 12  1  0
  3  4  1  0
  3  9  2  0
  3 15  1  0
  4  5  1  0
  6  7  1  0
  6 17  1  0
  6 18  1  0
  8 17  2  0
  9 10  1  0
  9 12  1  0
 11 21  2  0
 11 23  1  0
 12 13  2  0
 13 14  1  0
 13 17  1  0
 14 15  2  0
 15 16  1  0
 18 19  2  0
 18 27  1  0
 19 20  1  0
 19 21  1  0
 21 22  1  0
 23 24  1  0
 23 27  2  0
 24 25  1  0
 24 26  1  0
 25 29  2  0
 25 33  1  0
 27 28  1  0
 30 31  1  0
 30 32  1  0
 30 33  1  0
 30 35  1  0
 33 34  1  0
 33 35  1  0
 35 36  1  0
 35 37  1  0
M  END
> <intraLJ>
24.902    

> <intraEL>
-15.862   

> <intraDihe>
39.319    

> <interLJ>
0.000     

> <interEJ>
0.000     

> <gridLJ>
-6.893    

> <gridEL>
0.000     

> <totalE>
41.466    

> <LGFE>
-6.893  

> <LE>
-0.287  

> <SMILES>
O=C(Nc1ccnc(NC(=O)C2CC2)c1)c1c(Cl)cc(O)cc1Cl

> <atom.dprop.GFE>
-0.5900 -1.7850 0.2961 0.2170 0.0000 -0.3730 0.0000 -0.5020 0.2460 0.0000 -1.7190 0.0077 0.0222 0.0065 0.0307 0.0000 0.0000 -0.2911 -0.2710 0.0000 -0.1935 0.0000 -0.1675 -1.4000 0.0000 0.0000 -0.2806 0.0000 -0.9530 0.3989 0.0000 0.0000 -0.0470 0.0000 0.4549 0.0000 0.0000

> <atom.prop.CLASS>
CLBX CLBX BENC MEOO NCLA FORN NCLA FORO BENC NCLA IMIN BENC BENC BENC BENC NCLA NCLA BENC BENC NCLA GEHC NCLA GEHC FORN NCLA NCLA BENC NCLA FORO PRPC NCLA NCLA PRPC NCLA PRPC NCLA NCLA

> <cluster_id>
1

> <rmsd_to_cluster_rep>
0.00    

> <ligRMSD>
1.86    

> <ligCOMD>
0.65    

$$$$
tyk2_liang_jmc_08_955
     RDKit          3D

 40 42  0  0  0  0  0  0  0  0999 V2000
   33.4660   30.1653   39.0937 Cl  0  0  0  0  0  0  0  0  0  0  0  0
   30.5361   34.7634   38.4612 Cl  0  0  0  0  0  0  0  0  0  0  0  0
   32.7664   33.3234   41.4997 C   0  0  0  0  0  0  0  0  0  0  0  0
   33.1155   33.7693   42.7940 O   0  0  0  0  0  0  0  0  0  0  0  0
   33.9595   32.8974   43.5443 C   0  0  0  0  0  0  0  0  0  0  0  0
   34.1587   33.3556   44.5366 H   0  0  0  0  0  0  0  0  0  0  0  0
   34.9343   32.7499   43.0291 H   0  0  0  0  0  0  0  0  0  0  0  0
   33.4663   31.9141   43.7096 H   0  0  0  0  0  0  0  0  0  0  0  0
   30.4421   32.0815   37.0538 N   0  0  0  0  0  0  0  0  0  0  0  0
   29.6995   32.3903   37.6413 H   0  0  0  0  0  0  0  0  0  0  0  0
   32.6910   31.8106   36.7907 O   0  0  0  0  0  0  0  0  0  0  0  0
   31.9365   34.1289   40.7051 C   0  0  0  0  0  0  0  0  0  0  0  0
   31.5902   35.0762   41.0904 H   0  0  0  0  0  0  0  0  0  0  0  0
   29.3802   30.9201   33.1640 N   0  0  0  0  0  0  0  0  0  0  0  0
   31.5538   33.7203   39.4178 C   0  0  0  0  0  0  0  0  0  0  0  0
   31.9942   32.4825   38.9111 C   0  0  0  0  0  0  0  0  0  0  0  0
   32.8603   31.6899   39.6873 C   0  0  0  0  0  0  0  0  0  0  0  0
   33.2240   32.0981   40.9759 C   0  0  0  0  0  0  0  0  0  0  0  0
   33.8719   31.4523   41.5472 H   0  0  0  0  0  0  0  0  0  0  0  0
   31.7278   32.0982   37.4980 C   0  0  0  0  0  0  0  0  0  0  0  0
   30.0452   31.6772   35.7438 C   0  0  0  0  0  0  0  0  0  0  0  0
   30.6759   32.2753   34.6419 C   0  0  0  0  0  0  0  0  0  0  0  0
   31.4376   33.0265   34.7767 H   0  0  0  0  0  0  0  0  0  0  0  0
   30.3002   31.8587   33.3558 C   0  0  0  0  0  0  0  0  0  0  0  0
   30.7584   32.3011   32.4808 H   0  0  0  0  0  0  0  0  0  0  0  0
   28.7910   30.3246   34.1979 C   0  0  0  0  0  0  0  0  0  0  0  0
   27.8411   29.3240   33.8729 N   0  0  0  0  0  0  0  0  0  0  0  0
   27.6613   28.1357   34.4844 C   0  0  0  0  0  0  0  0  0  0  0  0
   27.3163   29.5335   33.0540 H   0  0  0  0  0  0  0  0  0  0  0  0
   29.0422   30.7151   35.5140 C   0  0  0  0  0  0  0  0  0  0  0  0
   28.4875   30.2814   36.3286 H   0  0  0  0  0  0  0  0  0  0  0  0
   26.7955   27.3687   34.0758 O   0  0  0  0  0  0  0  0  0  0  0  0
   30.0509   27.7720   35.5016 C   0  0  0  0  0  0  0  0  0  0  0  0
   30.5834   28.0021   36.4101 H   0  0  0  0  0  0  0  0  0  0  0  0
   30.4482   28.1470   34.5723 H   0  0  0  0  0  0  0  0  0  0  0  0
   28.5353   27.6572   35.6197 C   0  0  0  0  0  0  0  0  0  0  0  0
   28.1165   27.8075   36.6023 H   0  0  0  0  0  0  0  0  0  0  0  0
   29.3758   26.3997   35.4440 C   0  0  0  0  0  0  0  0  0  0  0  0
   29.3552   25.9197   34.4790 H   0  0  0  0  0  0  0  0  0  0  0  0
   29.4960   25.7786   36.3168 H   0  0  0  0  0  0  0  0  0  0  0  0
  1 17  1  0
  2 15  1  0
  3  4  1  0
  3 12  2  0
  3 18  1  0
  4  5  1  0
  5  6  1  0
  5  7  1  0
  5  8  1  0
  9 10  1  0
  9 20  1  0
  9 21  1  0
 11 20  2  0
 12 13  1  0
 12 15  1  0
 14 24  2  0
 14 26  1  0
 15 16  2  0
 16 17  1  0
 16 20  1  0
 17 18  2  0
 18 19  1  0
 21 22  2  0
 21 30  1  0
 22 23  1  0
 22 24  1  0
 24 25  1  0
 26 27  1  0
 26 30  2  0
 27 28  1  0
 27 29  1  0
 28 32  2  0
 28 36  1  0
 30 31  1  0
 33 34  1  0
 33 35  1  0
 33 36  1  0
 33 38  1  0
 36 37  1  0
 36 38  1  0
 38 39  1  0
 38 40  1  0
M  END
> <intraLJ>
27.378    

> <intraEL>
-16.272   

> <intraDihe>
40.343    

> <interLJ>
0.000     

> <interEJ>
0.000     

> <gridLJ>
-6.895    

> <gridEL>
0.000     

> <totalE>
44.553    

> <LGFE>
-6.895  

> <LE>
-0.276  

> <SMILES>
COc1cc(Cl)c(C(=O)Nc2ccnc(NC(=O)C3CC3)c2)c(Cl)c1

> <atom.dprop.GFE>
-1.1750 -0.5610 -0.0028 -0.2700 0.0583 0.0000 0.0000 0.0000 -0.9080 0.0000 -0.0840 0.1713 0.0000 0.1630 0.0848 0.0170 0.0478 0.0157 0.0000 0.0000 -0.1795 -0.0954 0.0000 -0.1868 0.0000 0.0756 -0.8600 0.0000 0.0000 -0.3086 0.0000 -2.2560 -0.4542 0.0000 0.0000 -0.4505 0.0000 0.2631 0.0000 0.0000

> <atom.prop.CLASS>
CLBX CLBX BENC DMEO PRPC NCLA NCLA NCLA FORN NCLA FORO BENC NCLA IMIN BENC BENC BENC BENC NCLA NCLA BENC BENC NCLA GEHC NCLA GEHC FORN NCLA NCLA BENC NCLA FORO PRPC NCLA NCLA PRPC NCLA PRPC NCLA NCLA

> <cluster_id>
1

> <rmsd_to_cluster_rep>
0.00    

> <ligRMSD>
3.22    

> <ligCOMD>
0.92    

$$$$
tyk2_liang_jmc_09_1055
     RDKit          3D

 40 42  0  0  0  0  0  0  0  0999 V2000
   32.3885   30.3915   39.2972 Cl  0  0  0  0  0  0  0  0  0  0  0  0
   32.1272   35.3119   36.8560 Cl  0  0  0  0  0  0  0  0  0  0  0  0
   33.5850   34.0706   40.4009 C   0  0  0  0  0  0  0  0  0  0  0  0
   34.2535   34.7311   41.5869 C   0  0  0  0  0  0  0  0  0  0  0  0
   34.7953   35.6337   41.2282 H   0  0  0  0  0  0  0  0  0  0  0  0
   34.9869   34.0092   42.0082 H   0  0  0  0  0  0  0  0  0  0  0  0
   33.3446   35.1089   42.6192 O   0  0  0  0  0  0  0  0  0  0  0  0
   32.9074   35.9082   42.3150 H   0  0  0  0  0  0  0  0  0  0  0  0
   30.5923   32.7623   36.4156 N   0  0  0  0  0  0  0  0  0  0  0  0
   30.1767   33.5929   36.7753 H   0  0  0  0  0  0  0  0  0  0  0  0
   32.3333   31.2901   36.5235 O   0  0  0  0  0  0  0  0  0  0  0  0
   33.2063   34.8623   39.3039 C   0  0  0  0  0  0  0  0  0  0  0  0
   33.4167   35.9215   39.3098 H   0  0  0  0  0  0  0  0  0  0  0  0
   28.7466   31.1212   33.0284 N   0  0  0  0  0  0  0  0  0  0  0  0
   32.5582   34.2911   38.1999 C   0  0  0  0  0  0  0  0  0  0  0  0
   32.2690   32.9128   38.1878 C   0  0  0  0  0  0  0  0  0  0  0  0
   32.6835   32.1093   39.2654 C   0  0  0  0  0  0  0  0  0  0  0  0
   33.3148   32.6903   40.3641 C   0  0  0  0  0  0  0  0  0  0  0  0
   33.6089   32.0635   41.1930 H   0  0  0  0  0  0  0  0  0  0  0  0
   31.7264   32.2605   36.9714 C   0  0  0  0  0  0  0  0  0  0  0  0
   29.9316   32.1987   35.2851 C   0  0  0  0  0  0  0  0  0  0  0  0
   30.3130   32.6333   34.0067 C   0  0  0  0  0  0  0  0  0  0  0  0
   31.0806   33.3796   33.8781 H   0  0  0  0  0  0  0  0  0  0  0  0
   29.6788   32.0581   32.8955 C   0  0  0  0  0  0  0  0  0  0  0  0
   29.9395   32.3711   31.8928 H   0  0  0  0  0  0  0  0  0  0  0  0
   28.3915   30.6789   34.2324 C   0  0  0  0  0  0  0  0  0  0  0  0
   27.4026   29.6628   34.2515 N   0  0  0  0  0  0  0  0  0  0  0  0
   27.4025   28.5324   34.9881 C   0  0  0  0  0  0  0  0  0  0  0  0
   26.6800   29.8071   33.5829 H   0  0  0  0  0  0  0  0  0  0  0  0
   28.9101   31.2358   35.4018 C   0  0  0  0  0  0  0  0  0  0  0  0
   28.5429   30.9253   36.3652 H   0  0  0  0  0  0  0  0  0  0  0  0
   26.4704   27.7410   34.8871 O   0  0  0  0  0  0  0  0  0  0  0  0
   29.9825   28.3143   35.4108 C   0  0  0  0  0  0  0  0  0  0  0  0
   30.7041   28.6090   36.1554 H   0  0  0  0  0  0  0  0  0  0  0  0
   30.1270   28.6598   34.4000 H   0  0  0  0  0  0  0  0  0  0  0  0
   28.5468   28.1446   35.8944 C   0  0  0  0  0  0  0  0  0  0  0  0
   28.3677   28.3250   36.9427 H   0  0  0  0  0  0  0  0  0  0  0  0
   29.3834   26.9147   35.5682 C   0  0  0  0  0  0  0  0  0  0  0  0
   29.1574   26.3886   34.6549 H   0  0  0  0  0  0  0  0  0  0  0  0
   29.7393   26.3417   36.4090 H   0  0  0  0  0  0  0  0  0  0  0  0
  1 17  1  0
  2 15  1  0
  3  4  1  0
  3 12  2  0
  3 18  1  0
  4  5  1  0
  4  6  1  0
  4  7  1  0
  7  8  1  0
  9 10  1  0
  9 20  1  0
  9 21  1  0
 11 20  2  0
 12 13  1  0
 12 15  1  0
 14 24  2  0
 14 26  1  0
 15 16  2  0
 16 17  1  0
 16 20  1  0
 17 18  2  0
 18 19  1  0
 21 22  2  0
 21 30  1  0
 22 23  1  0
 22 24  1  0
 24 25  1  0
 26 27  1  0
 26 30  2  0
 27 28  1  0
 27 29  1  0
 28 32  2  0
 28 36  1  0
 30 31  1  0
 33 34  1  0
 33 35  1  0
 33 36  1  0
 33 38  1  0
 36 37  1  0
 36 38  1  0
 38 39  1  0
 38 40  1  0
M  END
> <intraLJ>
24.107    

> <intraEL>
-13.898   

> <intraDihe>
45.563    

> <interLJ>
0.000     

> <interEJ>
0.000     

> <gridLJ>
-7.342    

> <gridEL>
0.000     

> <totalE>
48.430    

> <LGFE>
-7.342  

> <LE>
-0.294  

> <SMILES>
O=C(Nc1ccnc(NC(=O)C2CC2)c1)c1c(Cl)cc(CO)cc1Cl

> <atom.dprop.GFE>
-0.9740 -0.6040 -0.0002 -0.0236 0.0000 0.0000 -0.3820 0.0000 -0.6360 0.0000 -0.3180 0.1111 0.0000 0.1630 0.0569 -0.0296 0.0523 0.0523 0.0000 0.0000 -0.0872 -0.1341 0.0000 -0.2351 0.0000 0.0756 -0.4130 0.0000 0.0000 -0.1899 0.0000 -2.2560 -0.4542 0.0000 0.0000 -0.6653 0.0000 -0.4505 0.0000 0.0000

> <atom.prop.CLASS>
CLBX CLBX BENC PRPC NCLA NCLA MEOO NCLA FORN NCLA FORO BENC NCLA IMIN BENC BENC BENC BENC NCLA NCLA BENC BENC NCLA GEHC NCLA GEHC FORN NCLA NCLA BENC NCLA FORO PRPC NCLA NCLA PRPC NCLA PRPC NCLA NCLA

> <cluster_id>
1

> <rmsd_to_cluster_rep>
0.00    

> <ligRMSD>
2.46    

> <ligCOMD>
0.70    

$$$$
tyk2_liang_jmc_10_r_1021
     RDKit          3D

 43 45  0  0  1  0  0  0  0  0999 V2000
   30.4234   34.6270   38.3511 Cl  0  0  0  0  0  0  0  0  0  0  0  0
   33.5537   30.1454   38.9784 Cl  0  0  0  0  0  0  0  0  0  0  0  0
   33.2300   33.5940   41.0318 C   0  0  0  0  0  0  0  0  0  0  0  0
   33.8948   34.2038   42.2468 C   0  0  1  0  0  0  0  0  0  0  0  0
   35.3958   34.3759   41.9392 C   0  0  0  0  0  0  0  0  0  0  0  0
   35.5461   35.0515   41.0697 H   0  0  0  0  0  0  0  0  0  0  0  0
   35.8785   33.4014   41.7167 H   0  0  0  0  0  0  0  0  0  0  0  0
   35.9180   34.8159   42.8157 H   0  0  0  0  0  0  0  0  0  0  0  0
   33.7865   33.5166   43.1156 H   0  0  0  0  0  0  0  0  0  0  0  0
   33.3658   35.4649   42.6483 O   0  0  0  0  0  0  0  0  0  0  0  0
   33.5449   36.0663   41.9217 H   0  0  0  0  0  0  0  0  0  0  0  0
   31.1685   32.4862   36.4632 N   0  0  0  0  0  0  0  0  0  0  0  0
   31.5972   33.3761   36.3352 H   0  0  0  0  0  0  0  0  0  0  0  0
   30.9048   30.6642   37.8137 O   0  0  0  0  0  0  0  0  0  0  0  0
   33.6184   32.3139   40.6003 C   0  0  0  0  0  0  0  0  0  0  0  0
   34.3648   31.7630   41.1529 H   0  0  0  0  0  0  0  0  0  0  0  0
   29.0846   31.0906   33.1063 N   0  0  0  0  0  0  0  0  0  0  0  0
   33.0466   31.7410   39.4585 C   0  0  0  0  0  0  0  0  0  0  0  0
   32.0745   32.4506   38.7285 C   0  0  0  0  0  0  0  0  0  0  0  0
   31.6517   33.7132   39.1821 C   0  0  0  0  0  0  0  0  0  0  0  0
   32.2421   34.2825   40.3078 C   0  0  0  0  0  0  0  0  0  0  0  0
   31.9212   35.2616   40.6316 H   0  0  0  0  0  0  0  0  0  0  0  0
   31.3346   31.7998   37.6233 C   0  0  0  0  0  0  0  0  0  0  0  0
   30.4274   32.0076   35.3444 C   0  0  0  0  0  0  0  0  0  0  0  0
   30.7823   32.4661   34.0668 C   0  0  0  0  0  0  0  0  0  0  0  0
   31.5893   33.1682   33.9311 H   0  0  0  0  0  0  0  0  0  0  0  0
   30.0675   31.9731   32.9652 C   0  0  0  0  0  0  0  0  0  0  0  0
   30.3053   32.3069   31.9636 H   0  0  0  0  0  0  0  0  0  0  0  0
   28.7528   30.6257   34.3084 C   0  0  0  0  0  0  0  0  0  0  0  0
   27.7038   29.6718   34.3357 N   0  0  0  0  0  0  0  0  0  0  0  0
   27.6897   28.4863   34.9801 C   0  0  0  0  0  0  0  0  0  0  0  0
   26.9394   29.9136   33.7465 H   0  0  0  0  0  0  0  0  0  0  0  0
   29.3533   31.1055   35.4724 C   0  0  0  0  0  0  0  0  0  0  0  0
   29.0079   30.7821   36.4397 H   0  0  0  0  0  0  0  0  0  0  0  0
   26.7022   27.7626   34.9009 O   0  0  0  0  0  0  0  0  0  0  0  0
   30.2843   28.1664   35.2029 C   0  0  0  0  0  0  0  0  0  0  0  0
   31.0575   28.3435   35.9329 H   0  0  0  0  0  0  0  0  0  0  0  0
   30.3760   28.6445   34.2411 H   0  0  0  0  0  0  0  0  0  0  0  0
   28.8767   27.9578   35.7500 C   0  0  0  0  0  0  0  0  0  0  0  0
   28.7668   27.9961   36.8223 H   0  0  0  0  0  0  0  0  0  0  0  0
   29.6591   26.7694   35.2072 C   0  0  0  0  0  0  0  0  0  0  0  0
   29.3640   26.3774   34.2474 H   0  0  0  0  0  0  0  0  0  0  0  0
   30.0503   26.0803   35.9380 H   0  0  0  0  0  0  0  0  0  0  0  0
  1 20  1  0
  2 18  1  0
  3  4  1  0
  3 15  2  0
  3 21  1  0
  4  5  1  0
  4  9  1  1
  4 10  1  0
  5  6  1  0
  5  7  1  0
  5  8  1  0
 10 11  1  0
 12 13  1  0
 12 23  1  0
 12 24  1  0
 14 23  2  0
 15 16  1  0
 15 18  1  0
 17 27  2  0
 17 29  1  0
 18 19  2  0
 19 20  1  0
 19 23  1  0
 20 21  2  0
 21 22  1  0
 24 25  2  0
 24 33  1  0
 25 26  1  0
 25 27  1  0
 27 28  1  0
 29 30  1  0
 29 33  2  0
 30 31  1  0
 30 32  1  0
 31 35  2  0
 31 39  1  0
 33 34  1  0
 36 37  1  0
 36 38  1  0
 36 39  1  0
 36 41  1  0
 39 40  1  0
 39 41  1  0
 41 42  1  0
 41 43  1  0
M  END
> <intraLJ>
30.188    

> <intraEL>
-16.148   

> <intraDihe>
41.254    

> <interLJ>
0.000     

> <interEJ>
0.000     

> <gridLJ>
-7.291    

> <gridEL>
0.000     

> <totalE>
48.004    

> <LGFE>
-7.291  

> <LE>
-0.280  

> <SMILES>
C[C@@H](O)c1cc(Cl)c(C(=O)Nc2ccnc(NC(=O)C3CC3)c2)c(Cl)c1

> <atom.dprop.GFE>
-0.5610 -1.1750 -0.0028 0.0470 0.0120 0.0000 0.0000 0.0000 0.0000 -0.3820 0.0000 -0.6360 0.0000 -0.6870 0.0377 0.0000 0.1630 0.0478 0.0170 0.0848 0.1713 0.0000 0.0000 -0.0982 -0.0954 0.0000 -0.2351 0.0000 0.0756 -0.4130 0.0000 0.0000 -0.1899 0.0000 -2.2560 -0.4542 0.0000 0.0000 -0.6653 0.0000 -0.0962 0.0000 0.0000

> <atom.prop.CLASS>
CLBX CLBX BENC PRPC PRPC NCLA NCLA NCLA NCLA MEOO NCLA FORN NCLA FORO BENC NCLA IMIN BENC BENC BENC BENC NCLA NCLA BENC BENC NCLA GEHC NCLA GEHC FORN NCLA NCLA BENC NCLA FORO PRPC NCLA NCLA PRPC NCLA PRPC NCLA NCLA

> <cluster_id>
1

> <rmsd_to_cluster_rep>
0.00    

> <ligRMSD>
2.84    

> <ligCOMD>
1.02    

$$$$
tyk2_liang_jmc_11_423
     RDKit          3D

 46 48  0  0  0  0  0  0  0  0999 V2000
   32.3854   30.2503   39.2222 Cl  0  0  0  0  0  0  0  0  0  0  0  0
   32.0705   35.2417   36.9230 Cl  0  0  0  0  0  0  0  0  0  0  0  0
   33.5104   33.9088   40.4365 C   0  0  0  0  0  0  0  0  0  0  0  0
   34.1705   34.5372   41.6518 C   0  0  0  0  0  0  0  0  0  0  0  0
   35.5482   35.0662   41.1988 C   0  0  0  0  0  0  0  0  0  0  0  0
   36.1827   34.2403   40.8115 H   0  0  0  0  0  0  0  0  0  0  0  0
   36.0760   35.5361   42.0561 H   0  0  0  0  0  0  0  0  0  0  0  0
   35.4459   35.8366   40.4062 H   0  0  0  0  0  0  0  0  0  0  0  0
   33.2607   35.6830   42.1421 C   0  0  0  0  0  0  0  0  0  0  0  0
   33.1143   36.4503   41.3534 H   0  0  0  0  0  0  0  0  0  0  0  0
   33.7231   36.1880   43.0172 H   0  0  0  0  0  0  0  0  0  0  0  0
   32.2650   35.2971   42.4487 H   0  0  0  0  0  0  0  0  0  0  0  0
   34.3765   33.6366   42.7388 O   0  0  0  0  0  0  0  0  0  0  0  0
   33.5003   33.3714   43.0267 H   0  0  0  0  0  0  0  0  0  0  0  0
   30.5455   32.6422   36.4305 N   0  0  0  0  0  0  0  0  0  0  0  0
   30.0888   33.4281   36.8377 H   0  0  0  0  0  0  0  0  0  0  0  0
   32.3715   31.2704   36.4417 O   0  0  0  0  0  0  0  0  0  0  0  0
   33.1286   34.7246   39.3568 C   0  0  0  0  0  0  0  0  0  0  0  0
   33.3212   35.7867   39.3888 H   0  0  0  0  0  0  0  0  0  0  0  0
   28.7458   31.0568   32.9955 N   0  0  0  0  0  0  0  0  0  0  0  0
   32.5005   34.1795   38.2342 C   0  0  0  0  0  0  0  0  0  0  0  0
   32.2337   32.7994   38.1821 C   0  0  0  0  0  0  0  0  0  0  0  0
   32.6517   31.9710   39.2392 C   0  0  0  0  0  0  0  0  0  0  0  0
   33.2640   32.5270   40.3595 C   0  0  0  0  0  0  0  0  0  0  0  0
   33.5623   31.8803   41.1714 H   0  0  0  0  0  0  0  0  0  0  0  0
   31.7142   32.1791   36.9440 C   0  0  0  0  0  0  0  0  0  0  0  0
   29.9004   32.0972   35.2835 C   0  0  0  0  0  0  0  0  0  0  0  0
   30.2845   32.5673   34.0188 C   0  0  0  0  0  0  0  0  0  0  0  0
   31.0425   33.3268   33.9131 H   0  0  0  0  0  0  0  0  0  0  0  0
   29.6657   32.0095   32.8904 C   0  0  0  0  0  0  0  0  0  0  0  0
   29.9282   32.3492   31.8970 H   0  0  0  0  0  0  0  0  0  0  0  0
   28.3891   30.5813   34.1862 C   0  0  0  0  0  0  0  0  0  0  0  0
   27.4146   29.5511   34.1756 N   0  0  0  0  0  0  0  0  0  0  0  0
   27.4167   28.4125   34.8997 C   0  0  0  0  0  0  0  0  0  0  0  0
   26.7025   29.6929   33.4953 H   0  0  0  0  0  0  0  0  0  0  0  0
   28.8918   31.1180   35.3713 C   0  0  0  0  0  0  0  0  0  0  0  0
   28.5228   30.7801   36.3249 H   0  0  0  0  0  0  0  0  0  0  0  0
   26.4980   27.6093   34.7728 O   0  0  0  0  0  0  0  0  0  0  0  0
   29.9908   28.1803   35.3512 C   0  0  0  0  0  0  0  0  0  0  0  0
   30.7076   28.4815   36.0980 H   0  0  0  0  0  0  0  0  0  0  0  0
   30.1481   28.5077   34.3363 H   0  0  0  0  0  0  0  0  0  0  0  0
   28.5491   28.0306   35.8233 C   0  0  0  0  0  0  0  0  0  0  0  0
   28.3613   28.2299   36.8666 H   0  0  0  0  0  0  0  0  0  0  0  0
   29.3785   26.7886   35.5259 C   0  0  0  0  0  0  0  0  0  0  0  0
   29.1571   26.2492   34.6193 H   0  0  0  0  0  0  0  0  0  0  0  0
   29.7213   26.2267   36.3796 H   0  0  0  0  0  0  0  0  0  0  0  0
  1 23  1  0
  2 21  1  0
  3  4  1  0
  3 18  2  0
  3 24  1  0
  4  5  1  0
  4  9  1  0
  4 13  1  0
  5  6  1  0
  5  7  1  0
  5  8  1  0
  9 10  1  0
  9 11  1  0
  9 12  1  0
 13 14  1  0
 15 16  1  0
 15 26  1  0
 15 27  1  0
 17 26  2  0
 18 19  1  0
 18 21  1  0
 20 30  2  0
 20 32  1  0
 21 22  2  0
 22 23  1  0
 22 26  1  0
 23 24  2  0
 24 25  1  0
 27 28  2  0
 27 36  1  0
 28 29  1  0
 28 30  1  0
 30 31  1  0
 32 33  1  0
 32 36  2  0
 33 34  1  0
 33 35  1  0
 34 38  2  0
 34 42  1  0
 36 37  1  0
 39 40  1  0
 39 41  1  0
 39 42  1  0
 39 44  1  0
 42 43  1  0
 42 44  1  0
 44 45  1  0
 44 46  1  0
M  END
> <intraLJ>
25.776    

> <intraEL>
-18.958   

> <intraDihe>
48.460    

> <interLJ>
0.000     

> <interEJ>
0.000     

> <gridLJ>
-6.654    

> <gridEL>
0.000     

> <totalE>
48.623    

> <LGFE>
-6.654  

> <LE>
-0.246  

> <SMILES>
CC(C)(O)c1cc(Cl)c(C(=O)Nc2ccnc(NC(=O)C3CC3)c2)c(Cl)c1

> <atom.dprop.GFE>
-0.9740 -0.6040 -0.0002 -0.0236 0.1528 0.0000 0.0000 0.0000 -0.0196 0.0000 0.0000 0.0000 0.2170 0.0000 -0.6360 0.0000 -0.3180 0.0661 0.0000 0.1630 0.0569 -0.0296 0.0523 0.0523 0.0000 0.0000 -0.0872 -0.1341 0.0000 -0.2351 0.0000 0.0756 -0.4130 0.0000 0.0000 -0.1899 0.0000 -2.2560 -0.4542 0.0000 0.0000 -0.6653 0.0000 -0.4505 0.0000 0.0000

> <atom.prop.CLASS>
CLBX CLBX BENC PRPC PRPC NCLA NCLA NCLA PRPC NCLA NCLA NCLA MEOO NCLA FORN NCLA FORO BENC NCLA IMIN BENC BENC BENC BENC NCLA NCLA BENC BENC NCLA GEHC NCLA GEHC FORN NCLA NCLA BENC NCLA FORO PRPC NCLA NCLA PRPC NCLA PRPC NCLA NCLA

> <cluster_id>
1

> <rmsd_to_cluster_rep>
0.00    

> <ligRMSD>
2.71    

> <ligCOMD>
1.04    

$$$$
tyk2_liang_jmc_12_613
     RDKit          3D

 42 44  0  0  0  0  0  0  0  0999 V2000
   32.3857   29.8216   39.0537 Cl  0  0  0  0  0  0  0  0  0  0  0  0
   32.7170   34.8359   36.8404 Cl  0  0  0  0  0  0  0  0  0  0  0  0
   34.1266   33.2568   40.2639 C   0  0  0  0  0  0  0  0  0  0  0  0
   30.8231   32.5474   36.3642 N   0  0  0  0  0  0  0  0  0  0  0  0
   30.5381   33.4074   36.7780 H   0  0  0  0  0  0  0  0  0  0  0  0
   32.3486   30.8530   36.3238 O   0  0  0  0  0  0  0  0  0  0  0  0
   33.8200   34.1372   39.2174 C   0  0  0  0  0  0  0  0  0  0  0  0
   34.1743   35.1569   39.2521 H   0  0  0  0  0  0  0  0  0  0  0  0
   28.6310   31.3647   32.9872 N   0  0  0  0  0  0  0  0  0  0  0  0
   33.0563   33.7059   38.1228 C   0  0  0  0  0  0  0  0  0  0  0  0
   32.5803   32.3811   38.0698 C   0  0  0  0  0  0  0  0  0  0  0  0
   32.9239   31.4824   39.1009 C   0  0  0  0  0  0  0  0  0  0  0  0
   33.6755   31.9292   40.2004 C   0  0  0  0  0  0  0  0  0  0  0  0
   33.9161   31.2417   40.9974 H   0  0  0  0  0  0  0  0  0  0  0  0
   31.9001   31.8707   36.8473 C   0  0  0  0  0  0  0  0  0  0  0  0
   30.0483   32.1349   35.2386 C   0  0  0  0  0  0  0  0  0  0  0  0
   30.2918   32.7487   34.0002 C   0  0  0  0  0  0  0  0  0  0  0  0
   31.0408   33.5176   33.8976 H   0  0  0  0  0  0  0  0  0  0  0  0
   29.5440   32.3245   32.8913 C   0  0  0  0  0  0  0  0  0  0  0  0
   29.6975   32.7783   31.9208 H   0  0  0  0  0  0  0  0  0  0  0  0
   28.4060   30.7547   34.1482 C   0  0  0  0  0  0  0  0  0  0  0  0
   27.4246   29.7326   34.1265 N   0  0  0  0  0  0  0  0  0  0  0  0
   27.4591   28.5501   34.7733 C   0  0  0  0  0  0  0  0  0  0  0  0
   26.6771   29.9206   33.4972 H   0  0  0  0  0  0  0  0  0  0  0  0
   29.0451   31.1498   35.3241 C   0  0  0  0  0  0  0  0  0  0  0  0
   28.7806   30.7026   36.2672 H   0  0  0  0  0  0  0  0  0  0  0  0
   26.5281   27.7618   34.6444 O   0  0  0  0  0  0  0  0  0  0  0  0
   30.0445   28.1881   35.0186 C   0  0  0  0  0  0  0  0  0  0  0  0
   30.8327   28.4461   35.7072 H   0  0  0  0  0  0  0  0  0  0  0  0
   30.1363   28.5181   33.9965 H   0  0  0  0  0  0  0  0  0  0  0  0
   28.6393   28.1037   35.6038 C   0  0  0  0  0  0  0  0  0  0  0  0
   28.5454   28.3011   36.6601 H   0  0  0  0  0  0  0  0  0  0  0  0
   29.3801   26.8261   35.2327 C   0  0  0  0  0  0  0  0  0  0  0  0
   29.0605   26.3076   34.3434 H   0  0  0  0  0  0  0  0  0  0  0  0
   29.7622   26.2393   36.0523 H   0  0  0  0  0  0  0  0  0  0  0  0
   34.9002   33.7217   41.3902 C   0  0  0  0  0  0  0  0  0  0  0  0
   35.5636   34.1193   42.3370 C   0  0  0  0  0  0  0  0  0  0  0  0
   36.3325   34.5935   43.4954 C   0  0  0  0  0  0  0  0  0  0  0  0
   37.3895   34.7896   43.2129 H   0  0  0  0  0  0  0  0  0  0  0  0
   36.3323   33.8272   44.3004 H   0  0  0  0  0  0  0  0  0  0  0  0
   35.7839   35.7908   44.0316 O   0  0  0  0  0  0  0  0  0  0  0  0
   35.8973   36.4616   43.3540 H   0  0  0  0  0  0  0  0  0  0  0  0
  1 12  1  0
  2 10  1  0
  3  7  2  0
  3 13  1  0
  3 36  1  0
  4  5  1  0
  4 15  1  0
  4 16  1  0
  6 15  2  0
  7  8  1  0
  7 10  1  0
  9 19  2  0
  9 21  1  0
 10 11  2  0
 11 12  1  0
 11 15  1  0
 12 13  2  0
 13 14  1  0
 16 17  2  0
 16 25  1  0
 17 18  1  0
 17 19  1  0
 19 20  1  0
 21 22  1  0
 21 25  2  0
 22 23  1  0
 22 24  1  0
 23 27  2  0
 23 31  1  0
 25 26  1  0
 28 29  1  0
 28 30  1  0
 28 31  1  0
 28 33  1  0
 31 32  1  0
 31 33  1  0
 33 34  1  0
 33 35  1  0
 36 37  3  0
 37 38  1  0
 38 39  1  0
 38 40  1  0
 38 41  1  0
 41 42  1  0
M  END
> <intraLJ>
22.263    

> <intraEL>
-15.624   

> <intraDihe>
44.222    

> <interLJ>
0.000     

> <interEJ>
0.000     

> <gridLJ>
-7.305    

> <gridEL>
0.000     

> <totalE>
43.555    

> <LGFE>
-7.305  

> <LE>
-0.271  

> <SMILES>
O=C(Nc1ccnc(NC(=O)C2CC2)c1)c1c(Cl)cc(C#CCO)cc1Cl

> <atom.dprop.GFE>
-0.9740 -0.8510 -0.0023 -0.6360 0.0000 -0.3180 0.0434 0.0000 0.1630 0.0065 -0.0234 0.0478 0.0377 0.0000 0.0000 -0.0872 -0.1341 0.0000 -0.2351 0.0000 0.0756 -0.4130 0.0000 0.0000 -0.1899 0.0000 -2.2560 -0.4542 0.0000 0.0000 -0.6653 0.0000 -0.4505 0.0000 0.0000 0.0213 -0.0256 -0.0330 0.0000 0.0000 0.0480 0.0000

> <atom.prop.CLASS>
CLBX CLBX BENC FORN NCLA FORO BENC NCLA IMIN BENC BENC BENC BENC NCLA NCLA BENC BENC NCLA GEHC NCLA GEHC FORN NCLA NCLA BENC NCLA FORO PRPC NCLA NCLA PRPC NCLA PRPC NCLA NCLA PRPC PRPC PRPC NCLA NCLA MEOO NCLA

> <cluster_id>
1

> <rmsd_to_cluster_rep>
0.00    

> <ligRMSD>
2.99    

> <ligCOMD>
0.66    

$$$$
tyk2_liang_jmc_13_1104
     RDKit          3D

 41 43  0  0  0  0  0  0  0  0999 V2000
   32.3935   30.5732   38.9932 Cl  0  0  0  0  0  0  0  0  0  0  0  0
   33.4795   35.4579   36.7152 Cl  0  0  0  0  0  0  0  0  0  0  0  0
   34.2895   33.8686   40.3166 C   0  0  0  0  0  0  0  0  0  0  0  0
   34.9682   34.3173   41.5814 C   0  0  0  0  0  0  0  0  0  0  0  0
   34.8701   33.5293   42.3615 H   0  0  0  0  0  0  0  0  0  0  0  0
   34.3631   35.5828   42.0578 N   0  0  0  0  0  0  0  0  0  0  0  0
   33.3711   35.4855   42.2475 H   0  0  0  0  0  0  0  0  0  0  0  0
   34.4400   36.3303   41.3764 H   0  0  0  0  0  0  0  0  0  0  0  0
   36.0476   34.4681   41.3582 H   0  0  0  0  0  0  0  0  0  0  0  0
   31.0398   32.5300   36.5413 N   0  0  0  0  0  0  0  0  0  0  0  0
   30.4403   32.8841   37.2535 H   0  0  0  0  0  0  0  0  0  0  0  0
   33.1823   32.2370   35.8117 O   0  0  0  0  0  0  0  0  0  0  0  0
   34.2010   34.7360   39.2156 C   0  0  0  0  0  0  0  0  0  0  0  0
   34.6464   35.7181   39.2716 H   0  0  0  0  0  0  0  0  0  0  0  0
   29.1709   31.0652   33.0854 N   0  0  0  0  0  0  0  0  0  0  0  0
   33.5405   34.3415   38.0498 C   0  0  0  0  0  0  0  0  0  0  0  0
   32.9495   33.0666   37.9723 C   0  0  0  0  0  0  0  0  0  0  0  0
   33.0754   32.1768   39.0578 C   0  0  0  0  0  0  0  0  0  0  0  0
   33.7262   32.5867   40.2276 C   0  0  0  0  0  0  0  0  0  0  0  0
   33.7970   31.9102   41.0662 H   0  0  0  0  0  0  0  0  0  0  0  0
   32.3904   32.5769   36.6881 C   0  0  0  0  0  0  0  0  0  0  0  0
   30.3718   32.0263   35.3866 C   0  0  0  0  0  0  0  0  0  0  0  0
   30.7793   32.4893   34.1262 C   0  0  0  0  0  0  0  0  0  0  0  0
   31.5728   33.2127   34.0285 H   0  0  0  0  0  0  0  0  0  0  0  0
   30.1359   31.9732   32.9914 C   0  0  0  0  0  0  0  0  0  0  0  0
   30.4162   32.3099   32.0018 H   0  0  0  0  0  0  0  0  0  0  0  0
   28.7904   30.5963   34.2712 C   0  0  0  0  0  0  0  0  0  0  0  0
   27.7672   29.6152   34.2483 N   0  0  0  0  0  0  0  0  0  0  0  0
   27.6638   28.5202   35.0293 C   0  0  0  0  0  0  0  0  0  0  0  0
   27.1097   29.7523   33.5143 H   0  0  0  0  0  0  0  0  0  0  0  0
   29.3170   31.0958   35.4627 C   0  0  0  0  0  0  0  0  0  0  0  0
   28.9303   30.7666   36.4122 H   0  0  0  0  0  0  0  0  0  0  0  0
   26.7155   27.7561   34.8813 O   0  0  0  0  0  0  0  0  0  0  0  0
   30.1729   28.0351   35.6205 C   0  0  0  0  0  0  0  0  0  0  0  0
   30.9040   28.3485   36.3481 H   0  0  0  0  0  0  0  0  0  0  0  0
   30.3966   28.1907   34.5776 H   0  0  0  0  0  0  0  0  0  0  0  0
   28.7126   28.1367   36.0463 C   0  0  0  0  0  0  0  0  0  0  0  0
   28.5264   28.5061   37.0425 H   0  0  0  0  0  0  0  0  0  0  0  0
   29.3805   26.7708   35.9612 C   0  0  0  0  0  0  0  0  0  0  0  0
   29.1134   26.1385   35.1301 H   0  0  0  0  0  0  0  0  0  0  0  0
   29.6262   26.2993   36.8989 H   0  0  0  0  0  0  0  0  0  0  0  0
  1 18  1  0
  2 16  1  0
  3  4  1  0
  3 13  2  0
  3 19  1  0
  4  5  1  0
  4  6  1  0
  4  9  1  0
  6  7  1  0
  6  8  1  0
 10 11  1  0
 10 21  1  0
 10 22  1  0
 12 21  2  0
 13 14  1  0
 13 16  1  0
 15 25  2  0
 15 27  1  0
 16 17  2  0
 17 18  1  0
 17 21  1  0
 18 19  2  0
 19 20  1  0
 22 23  2  0
 22 31  1  0
 23 24  1  0
 23 25  1  0
 25 26  1  0
 27 28  1  0
 27 31  2  0
 28 29  1  0
 28 30  1  0
 29 33  2  0
 29 37  1  0
 31 32  1  0
 34 35  1  0
 34 36  1  0
 34 37  1  0
 34 39  1  0
 37 38  1  0
 37 39  1  0
 39 40  1  0
 39 41  1  0
M  END
> <intraLJ>
24.910    

> <intraEL>
-13.435   

> <intraDihe>
45.808    

> <interLJ>
0.000     

> <interEJ>
0.000     

> <gridLJ>
-7.381    

> <gridEL>
0.000     

> <totalE>
49.902    

> <LGFE>
-7.381  

> <LE>
-0.295  

> <SMILES>
NCc1cc(Cl)c(C(=O)Nc2ccnc(NC(=O)C3CC3)c2)c(Cl)c1

> <atom.dprop.GFE>
-0.9740 -1.2330 -0.0002 0.0470 0.0000 -0.2590 0.0000 0.0000 0.0000 -0.6360 0.0000 -0.0840 0.0434 0.0000 0.1630 0.0762 -0.0028 0.0523 0.0377 0.0000 0.0000 -0.0872 -0.0954 0.0000 -0.1868 0.0000 0.0756 -0.4130 0.0000 0.0000 -0.1899 0.0000 -2.2560 -0.4542 0.0000 0.0000 -0.5544 0.0000 -0.4505 0.0000 0.0000

> <atom.prop.CLASS>
CLBX CLBX BENC PRPC NCLA FORN NCLA NCLA NCLA FORN NCLA FORO BENC NCLA IMIN BENC BENC BENC BENC NCLA NCLA BENC BENC NCLA GEHC NCLA GEHC FORN NCLA NCLA BENC NCLA FORO PRPC NCLA NCLA PRPC NCLA PRPC NCLA NCLA

> <cluster_id>
1

> <rmsd_to_cluster_rep>
0.00    

> <ligRMSD>
2.55    

> <ligCOMD>
0.84    

$$$$
tyk2_liang_jmc_14_120
     RDKit          3D

 44 46  0  0  0  0  0  0  0  0999 V2000
   30.7341   34.6539   38.1849 Cl  0  0  0  0  0  0  0  0  0  0  0  0
   33.4612   29.9124   38.9813 Cl  0  0  0  0  0  0  0  0  0  0  0  0
   33.3508   33.3887   40.9652 C   0  0  0  0  0  0  0  0  0  0  0  0
   34.0619   33.9596   42.1700 C   0  0  0  0  0  0  0  0  0  0  0  0
   33.4174   33.8136   43.0669 H   0  0  0  0  0  0  0  0  0  0  0  0
   34.3772   35.3998   42.0378 N   0  0  0  0  0  0  0  0  0  0  0  0
   33.5610   35.9701   41.8163 H   0  0  0  0  0  0  0  0  0  0  0  0
   35.3752   35.7454   41.0257 C   0  0  0  0  0  0  0  0  0  0  0  0
   36.2625   35.0777   41.0946 H   0  0  0  0  0  0  0  0  0  0  0  0
   35.7232   36.7929   41.1682 H   0  0  0  0  0  0  0  0  0  0  0  0
   34.9565   35.6846   39.9986 H   0  0  0  0  0  0  0  0  0  0  0  0
   34.9987   33.3808   42.3235 H   0  0  0  0  0  0  0  0  0  0  0  0
   31.2730   32.4242   36.3781 N   0  0  0  0  0  0  0  0  0  0  0  0
   31.7421   33.2945   36.2583 H   0  0  0  0  0  0  0  0  0  0  0  0
   30.9399   30.6047   37.7253 O   0  0  0  0  0  0  0  0  0  0  0  0
   33.5377   32.0470   40.6012 C   0  0  0  0  0  0  0  0  0  0  0  0
   34.1549   31.4046   41.2107 H   0  0  0  0  0  0  0  0  0  0  0  0
   29.1046   31.1906   33.0238 N   0  0  0  0  0  0  0  0  0  0  0  0
   33.0092   31.5368   39.4228 C   0  0  0  0  0  0  0  0  0  0  0  0
   32.1788   32.3455   38.6275 C   0  0  0  0  0  0  0  0  0  0  0  0
   31.8641   33.6529   39.0563 C   0  0  0  0  0  0  0  0  0  0  0  0
   32.4841   34.1816   40.1952 C   0  0  0  0  0  0  0  0  0  0  0  0
   32.2829   35.2007   40.4899 H   0  0  0  0  0  0  0  0  0  0  0  0
   31.4086   31.7248   37.5331 C   0  0  0  0  0  0  0  0  0  0  0  0
   30.5019   32.0022   35.2600 C   0  0  0  0  0  0  0  0  0  0  0  0
   30.8188   32.5311   34.0002 C   0  0  0  0  0  0  0  0  0  0  0  0
   31.6182   33.2447   33.8794 H   0  0  0  0  0  0  0  0  0  0  0  0
   30.0762   32.0897   32.8963 C   0  0  0  0  0  0  0  0  0  0  0  0
   30.2815   32.4755   31.9064 H   0  0  0  0  0  0  0  0  0  0  0  0
   28.8072   30.6558   34.2072 C   0  0  0  0  0  0  0  0  0  0  0  0
   27.7711   29.6801   34.2247 N   0  0  0  0  0  0  0  0  0  0  0  0
   27.7776   28.4790   34.8508 C   0  0  0  0  0  0  0  0  0  0  0  0
   26.9915   29.9279   33.6582 H   0  0  0  0  0  0  0  0  0  0  0  0
   29.4372   31.0873   35.3741 C   0  0  0  0  0  0  0  0  0  0  0  0
   29.1278   30.7106   36.3344 H   0  0  0  0  0  0  0  0  0  0  0  0
   26.7962   27.7430   34.7900 O   0  0  0  0  0  0  0  0  0  0  0  0
   30.3839   28.1715   35.0473 C   0  0  0  0  0  0  0  0  0  0  0  0
   31.1574   28.3444   35.7780 H   0  0  0  0  0  0  0  0  0  0  0  0
   30.4707   28.6604   34.0906 H   0  0  0  0  0  0  0  0  0  0  0  0
   28.9791   27.9490   35.5953 C   0  0  0  0  0  0  0  0  0  0  0  0
   28.8723   27.9745   36.6683 H   0  0  0  0  0  0  0  0  0  0  0  0
   29.7661   26.7708   35.0371 C   0  0  0  0  0  0  0  0  0  0  0  0
   29.4708   26.3884   34.0736 H   0  0  0  0  0  0  0  0  0  0  0  0
   30.1607   26.0753   35.7600 H   0  0  0  0  0  0  0  0  0  0  0  0
  1 21  1  0
  2 19  1  0
  3  4  1  0
  3 16  2  0
  3 22  1  0
  4  5  1  0
  4  6  1  0
  4 12  1  0
  6  7  1  0
  6  8  1  0
  8  9  1  0
  8 10  1  0
  8 11  1  0
 13 14  1  0
 13 24  1  0
 13 25  1  0
 15 24  2  0
 16 17  1  0
 16 19  1  0
 18 28  2  0
 18 30  1  0
 19 20  2  0
 20 21  1  0
 20 24  1  0
 21 22  2  0
 22 23  1  0
 25 26  2  0
 25 34  1  0
 26 27  1  0
 26 28  1  0
 28 29  1  0
 30 31  1  0
 30 34  2  0
 31 32  1  0
 31 33  1  0
 32 36  2  0
 32 40  1  0
 34 35  1  0
 37 38  1  0
 37 39  1  0
 37 40  1  0
 37 42  1  0
 40 41  1  0
 40 42  1  0
 42 43  1  0
 42 44  1  0
M  END
> <intraLJ>
30.835    

> <intraEL>
-12.913   

> <intraDihe>
38.008    

> <interLJ>
0.000     

> <interEJ>
0.000     

> <gridLJ>
-7.138    

> <gridEL>
0.000     

> <totalE>
48.793    

> <LGFE>
-7.138  

> <LE>
-0.275  

> <SMILES>
CNCc1cc(Cl)c(C(=O)Nc2ccnc(NC(=O)C3CC3)c2)c(Cl)c1

> <atom.dprop.GFE>
-0.5610 -1.1750 0.0301 0.0470 0.0000 -0.2590 0.0000 0.1185 0.0000 0.0000 0.0000 0.0000 -0.6360 0.0000 -0.6870 0.0377 0.0000 0.1630 0.0478 0.0170 0.0848 0.0514 0.0000 0.0000 -0.0982 -0.0954 0.0000 -0.2351 0.0000 0.0756 -0.4130 0.0000 0.0000 -0.1795 0.0000 -2.2560 -0.4542 0.0000 0.0000 -0.6653 0.0000 -0.0962 0.0000 0.0000

> <atom.prop.CLASS>
CLBX CLBX BENC PRPC NCLA FORN NCLA PRPC NCLA NCLA NCLA NCLA FORN NCLA FORO BENC NCLA IMIN BENC BENC BENC BENC NCLA NCLA BENC BENC NCLA GEHC NCLA GEHC FORN NCLA NCLA BENC NCLA FORO PRPC NCLA NCLA PRPC NCLA PRPC NCLA NCLA

> <cluster_id>
1

> <rmsd_to_cluster_rep>
0.00    

> <ligRMSD>
2.95    

> <ligCOMD>
1.10    

$$$$
tyk2_liang_jmc_15_1109
     RDKit          3D

 47 49  0  0  0  0  0  0  0  0999 V2000
   32.5296   30.2778   38.9781 Cl  0  0  0  0  0  0  0  0  0  0  0  0
   32.4143   35.4226   36.9587 Cl  0  0  0  0  0  0  0  0  0  0  0  0
   33.7897   33.8366   40.3666 C   0  0  0  0  0  0  0  0  0  0  0  0
   34.3438   34.4013   41.6551 C   0  0  0  0  0  0  0  0  0  0  0  0
   34.8758   33.5961   42.2092 H   0  0  0  0  0  0  0  0  0  0  0  0
   33.2813   34.9675   42.5234 N   0  0  0  0  0  0  0  0  0  0  0  0
   32.3862   33.9366   43.0239 C   0  0  0  0  0  0  0  0  0  0  0  0
   32.9562   33.1131   43.5091 H   0  0  0  0  0  0  0  0  0  0  0  0
   31.7711   33.5001   42.2058 H   0  0  0  0  0  0  0  0  0  0  0  0
   31.6876   34.3599   43.7808 H   0  0  0  0  0  0  0  0  0  0  0  0
   32.6385   36.1634   41.9954 C   0  0  0  0  0  0  0  0  0  0  0  0
   33.3415   36.7658   41.3789 H   0  0  0  0  0  0  0  0  0  0  0  0
   32.2752   36.8101   42.8250 H   0  0  0  0  0  0  0  0  0  0  0  0
   31.7568   35.8996   41.3688 H   0  0  0  0  0  0  0  0  0  0  0  0
   35.0841   35.1898   41.3968 H   0  0  0  0  0  0  0  0  0  0  0  0
   30.6790   32.5489   36.4650 N   0  0  0  0  0  0  0  0  0  0  0  0
   30.0899   33.0872   37.0610 H   0  0  0  0  0  0  0  0  0  0  0  0
   32.7982   31.7887   36.0562 O   0  0  0  0  0  0  0  0  0  0  0  0
   33.5185   34.6875   39.2856 C   0  0  0  0  0  0  0  0  0  0  0  0
   33.7976   35.7286   39.3338 H   0  0  0  0  0  0  0  0  0  0  0  0
   28.9214   31.0638   32.9748 N   0  0  0  0  0  0  0  0  0  0  0  0
   32.8284   34.2381   38.1681 C   0  0  0  0  0  0  0  0  0  0  0  0
   32.4658   32.8832   38.0731 C   0  0  0  0  0  0  0  0  0  0  0  0
   32.8435   31.9885   39.0975 C   0  0  0  0  0  0  0  0  0  0  0  0
   33.4625   32.4751   40.2555 C   0  0  0  0  0  0  0  0  0  0  0  0
   33.6944   31.7989   41.0646 H   0  0  0  0  0  0  0  0  0  0  0  0
   31.9853   32.3596   36.7803 C   0  0  0  0  0  0  0  0  0  0  0  0
   30.0450   32.0434   35.2964 C   0  0  0  0  0  0  0  0  0  0  0  0
   30.5223   32.4688   34.0481 C   0  0  0  0  0  0  0  0  0  0  0  0
   31.3410   33.1666   33.9717 H   0  0  0  0  0  0  0  0  0  0  0  0
   29.9146   31.9450   32.8987 C   0  0  0  0  0  0  0  0  0  0  0  0
   30.2458   32.2499   31.9146 H   0  0  0  0  0  0  0  0  0  0  0  0
   28.4728   30.6261   34.1504 C   0  0  0  0  0  0  0  0  0  0  0  0
   27.4282   29.6598   34.1159 N   0  0  0  0  0  0  0  0  0  0  0  0
   27.3649   28.4866   34.7901 C   0  0  0  0  0  0  0  0  0  0  0  0
   26.7049   29.8893   33.4722 H   0  0  0  0  0  0  0  0  0  0  0  0
   28.9609   31.1458   35.3490 C   0  0  0  0  0  0  0  0  0  0  0  0
   28.5302   30.8481   36.2901 H   0  0  0  0  0  0  0  0  0  0  0  0
   26.3843   27.7564   34.6731 O   0  0  0  0  0  0  0  0  0  0  0  0
   29.9401   28.1834   35.2406 C   0  0  0  0  0  0  0  0  0  0  0  0
   30.6421   28.3788   36.0351 H   0  0  0  0  0  0  0  0  0  0  0  0
   30.1186   28.6415   34.2814 H   0  0  0  0  0  0  0  0  0  0  0  0
   28.4891   27.9795   35.6606 C   0  0  0  0  0  0  0  0  0  0  0  0
   28.2819   28.0393   36.7174 H   0  0  0  0  0  0  0  0  0  0  0  0
   29.3207   26.7835   35.2165 C   0  0  0  0  0  0  0  0  0  0  0  0
   29.1160   26.3710   34.2420 H   0  0  0  0  0  0  0  0  0  0  0  0
   29.6429   26.1110   35.9950 H   0  0  0  0  0  0  0  0  0  0  0  0
  1 24  1  0
  2 22  1  0
  3  4  1  0
  3 19  2  0
  3 25  1  0
  4  5  1  0
  4  6  1  0
  4 15  1  0
  6  7  1  0
  6 11  1  0
  7  8  1  0
  7  9  1  0
  7 10  1  0
 11 12  1  0
 11 13  1  0
 11 14  1  0
 16 17  1  0
 16 27  1  0
 16 28  1  0
 18 27  2  0
 19 20  1  0
 19 22  1  0
 21 31  2  0
 21 33  1  0
 22 23  2  0
 23 24  1  0
 23 27  1  0
 24 25  2  0
 25 26  1  0
 28 29  2  0
 28 37  1  0
 29 30  1  0
 29 31  1  0
 31 32  1  0
 33 34  1  0
 33 37  2  0
 34 35  1  0
 34 36  1  0
 35 39  2  0
 35 43  1  0
 37 38  1  0
 40 41  1  0
 40 42  1  0
 40 43  1  0
 40 45  1  0
 43 44  1  0
 43 45  1  0
 45 46  1  0
 45 47  1  0
M  END
> <intraLJ>
23.618    

> <intraEL>
-15.202   

> <intraDihe>
48.962    

> <interLJ>
0.000     

> <interEJ>
0.000     

> <gridLJ>
-7.256    

> <gridEL>
0.000     

> <totalE>
50.123    

> <LGFE>
-7.256  

> <LE>
-0.269  

> <SMILES>
CN(C)Cc1cc(Cl)c(C(=O)Nc2ccnc(NC(=O)C3CC3)c2)c(Cl)c1

> <atom.dprop.GFE>
-0.9740 -0.8510 -0.0002 -0.0236 0.0000 -0.3660 0.0007 0.0000 0.0000 0.0000 0.0896 0.0000 0.0000 0.0000 0.0000 -0.6360 0.0000 -0.0840 0.0434 0.0000 0.1630 0.0569 0.0065 0.0523 0.0377 0.0000 0.0000 -0.0872 -0.0954 0.0000 -0.2351 0.0000 0.0756 -0.4130 0.0000 0.0000 -0.1899 0.0000 -2.2560 -0.4542 0.0000 0.0000 -0.6653 0.0000 -0.4505 0.0000 0.0000

> <atom.prop.CLASS>
CLBX CLBX BENC PRPC NCLA GENA PRPC NCLA NCLA NCLA PRPC NCLA NCLA NCLA NCLA FORN NCLA FORO BENC NCLA IMIN BENC BENC BENC BENC NCLA NCLA BENC BENC NCLA GEHC NCLA GEHC FORN NCLA NCLA BENC NCLA FORO PRPC NCLA NCLA PRPC NCLA PRPC NCLA NCLA

> <cluster_id>
1

> <rmsd_to_cluster_rep>
0.00    

> <ligRMSD>
3.22    

> <ligCOMD>
1.41    

$$$$
tyk2_liang_jmc_16_631
     RDKit          3D

 52 55  0  0  0  0  0  0  0  0999 V2000
   33.3654   31.0331   37.6440 Cl  0  0  0  0  0  0  0  0  0  0  0  0
   31.3851   35.9114   35.9633 Cl  0  0  0  0  0  0  0  0  0  0  0  0
   33.6684   34.7807   39.0522 C   0  0  0  0  0  0  0  0  0  0  0  0
   34.3412   35.4317   40.2311 C   0  0  0  0  0  0  0  0  0  0  0  0
   35.2616   34.8467   40.4489 H   0  0  0  0  0  0  0  0  0  0  0  0
   33.6575   35.3709   41.1068 H   0  0  0  0  0  0  0  0  0  0  0  0
   30.5211   32.7668   35.5368 N   0  0  0  0  0  0  0  0  0  0  0  0
   29.9091   33.1787   36.2059 H   0  0  0  0  0  0  0  0  0  0  0  0
   32.6860   32.4636   34.8600 O   0  0  0  0  0  0  0  0  0  0  0  0
   32.9587   35.5210   38.0900 C   0  0  0  0  0  0  0  0  0  0  0  0
   32.8939   36.5960   38.1747 H   0  0  0  0  0  0  0  0  0  0  0  0
   28.7170   30.8628   32.2818 N   0  0  0  0  0  0  0  0  0  0  0  0
   32.2960   34.8964   37.0460 C   0  0  0  0  0  0  0  0  0  0  0  0
   32.3782   33.5005   36.9095 C   0  0  0  0  0  0  0  0  0  0  0  0
   33.1612   32.7544   37.8149 C   0  0  0  0  0  0  0  0  0  0  0  0
   33.7717   33.3923   38.8991 C   0  0  0  0  0  0  0  0  0  0  0  0
   34.3419   32.8140   39.6109 H   0  0  0  0  0  0  0  0  0  0  0  0
   31.8663   32.8641   35.6837 C   0  0  0  0  0  0  0  0  0  0  0  0
   29.8727   32.1193   34.4499 C   0  0  0  0  0  0  0  0  0  0  0  0
   30.2577   32.4654   33.1464 C   0  0  0  0  0  0  0  0  0  0  0  0
   31.0178   33.2093   32.9678 H   0  0  0  0  0  0  0  0  0  0  0  0
   29.6371   31.8010   32.0794 C   0  0  0  0  0  0  0  0  0  0  0  0
   29.8982   32.0405   31.0569 H   0  0  0  0  0  0  0  0  0  0  0  0
   28.3583   30.5017   33.5126 C   0  0  0  0  0  0  0  0  0  0  0  0
   27.3860   29.4690   33.6135 N   0  0  0  0  0  0  0  0  0  0  0  0
   27.3852   28.4173   34.4650 C   0  0  0  0  0  0  0  0  0  0  0  0
   26.6722   29.5357   32.9235 H   0  0  0  0  0  0  0  0  0  0  0  0
   28.8620   31.1563   34.6357 C   0  0  0  0  0  0  0  0  0  0  0  0
   28.4976   30.9137   35.6196 H   0  0  0  0  0  0  0  0  0  0  0  0
   26.4664   27.6031   34.4396 O   0  0  0  0  0  0  0  0  0  0  0  0
   29.9613   28.2948   34.9792 C   0  0  0  0  0  0  0  0  0  0  0  0
   30.6510   28.6768   35.7144 H   0  0  0  0  0  0  0  0  0  0  0  0
   30.1345   28.5415   33.9443 H   0  0  0  0  0  0  0  0  0  0  0  0
   28.5132   28.1436   35.4304 C   0  0  0  0  0  0  0  0  0  0  0  0
   28.2955   28.4228   36.4492 H   0  0  0  0  0  0  0  0  0  0  0  0
   29.3818   26.9051   35.2554 C   0  0  0  0  0  0  0  0  0  0  0  0
   29.1971   26.2870   34.3919 H   0  0  0  0  0  0  0  0  0  0  0  0
   29.7169   26.4253   36.1607 H   0  0  0  0  0  0  0  0  0  0  0  0
   36.2152   39.2158   39.9693 O   0  0  0  0  0  0  0  0  0  0  0  0
   36.0511   38.4507   38.7835 C   0  0  0  0  0  0  0  0  0  0  0  0
   36.9648   38.5601   38.1602 H   0  0  0  0  0  0  0  0  0  0  0  0
   35.1949   38.8605   38.2031 H   0  0  0  0  0  0  0  0  0  0  0  0
   35.8153   36.9584   39.0637 C   0  0  0  0  0  0  0  0  0  0  0  0
   36.7173   36.5097   39.5328 H   0  0  0  0  0  0  0  0  0  0  0  0
   35.5994   36.4263   38.1120 H   0  0  0  0  0  0  0  0  0  0  0  0
   34.6873   36.8340   39.9752 N   0  0  0  0  0  0  0  0  0  0  0  0
   34.8811   37.6202   41.2083 C   0  0  0  0  0  0  0  0  0  0  0  0
   35.7815   37.2489   41.7438 H   0  0  0  0  0  0  0  0  0  0  0  0
   34.0172   37.5504   41.9020 H   0  0  0  0  0  0  0  0  0  0  0  0
   35.0783   39.0850   40.8051 C   0  0  0  0  0  0  0  0  0  0  0  0
   35.2362   39.6978   41.7190 H   0  0  0  0  0  0  0  0  0  0  0  0
   34.1759   39.4730   40.2833 H   0  0  0  0  0  0  0  0  0  0  0  0
  1 15  1  0
  2 13  1  0
  3  4  1  0
  3 10  2  0
  3 16  1  0
  4  5  1  0
  4  6  1  0
  4 46  1  0
  7  8  1  0
  7 18  1  0
  7 19  1  0
  9 18  2  0
 10 11  1  0
 10 13  1  0
 12 22  2  0
 12 24  1  0
 13 14  2  0
 14 15  1  0
 14 18  1  0
 15 16  2  0
 16 17  1  0
 19 20  2  0
 19 28  1  0
 20 21  1  0
 20 22  1  0
 22 23  1  0
 24 25  1  0
 24 28  2  0
 25 26  1  0
 25 27  1  0
 26 30  2  0
 26 34  1  0
 28 29  1  0
 31 32  1  0
 31 33  1  0
 31 34  1  0
 31 36  1  0
 34 35  1  0
 34 36  1  0
 36 37  1  0
 36 38  1  0
 39 40  1  0
 39 50  1  0
 40 41  1  0
 40 42  1  0
 40 43  1  0
 43 44  1  0
 43 45  1  0
 43 46  1  0
 46 47  1  0
 47 48  1  0
 47 49  1  0
 47 50  1  0
 50 51  1  0
 50 52  1  0
M  END
> <intraLJ>
26.711    

> <intraEL>
-13.718   

> <intraDihe>
68.384    

> <interLJ>
0.000     

> <interEJ>
0.000     

> <gridLJ>
-6.836    

> <gridEL>
0.000     

> <totalE>
74.541    

> <LGFE>
-6.836  

> <LE>
-0.228  

> <SMILES>
O=C(Nc1ccnc(NC(=O)C2CC2)c1)c1c(Cl)cc(CN2CCOCC2)cc1Cl

> <atom.dprop.GFE>
-0.4170 -1.3480 0.1127 0.0733 0.0000 0.0000 -0.2590 0.0000 -0.2060 0.1314 0.0000 1.1870 0.1627 0.0065 -0.0377 0.0150 0.0000 0.0000 -0.1341 -0.1182 0.0000 -0.2351 0.0000 0.0253 -0.8600 0.0000 0.0000 -0.2405 0.0000 -2.2560 -0.4542 0.0000 0.0000 -0.6653 0.0000 -0.4505 0.0000 0.0000 -0.6280 -0.2254 0.0000 0.0000 -0.0856 0.0000 0.0000 0.2980 -0.0097 0.0000 0.0000 -0.2171 0.0000 0.0000

> <atom.prop.CLASS>
CLBX CLBX BENC PRPC NCLA NCLA FORN NCLA FORO BENC NCLA IMIN BENC BENC BENC BENC NCLA NCLA BENC BENC NCLA GEHC NCLA GEHC FORN NCLA NCLA BENC NCLA FORO PRPC NCLA NCLA PRPC NCLA PRPC NCLA NCLA DMEO PRPC NCLA NCLA PRPC NCLA NCLA GENA PRPC NCLA NCLA PRPC NCLA NCLA

> <cluster_id>
1

> <rmsd_to_cluster_rep>
0.00    

> <ligRMSD>
2.90    

> <ligCOMD>
1.11    

$$$$
tyk2_liang_jmc_17_417
     RDKit          3D

 43 45  0  0  0  0  0  0  0  0999 V2000
   32.3869   30.2360   39.3433 Cl  0  0  0  0  0  0  0  0  0  0  0  0
   32.0927   35.2145   36.9574 Cl  0  0  0  0  0  0  0  0  0  0  0  0
   33.4229   33.9525   40.4988 C   0  0  0  0  0  0  0  0  0  0  0  0
   34.1667   34.6052   41.6384 C   0  0  0  0  0  0  0  0  0  0  0  0
   33.3301   34.9374   42.7501 O   0  0  0  0  0  0  0  0  0  0  0  0
   34.0406   35.5401   43.8327 C   0  0  0  0  0  0  0  0  0  0  0  0
   33.3233   35.7681   44.6499 H   0  0  0  0  0  0  0  0  0  0  0  0
   34.5389   36.4866   43.5377 H   0  0  0  0  0  0  0  0  0  0  0  0
   34.8097   34.8385   44.2196 H   0  0  0  0  0  0  0  0  0  0  0  0
   34.6697   35.5221   41.2591 H   0  0  0  0  0  0  0  0  0  0  0  0
   34.9413   33.8865   41.9832 H   0  0  0  0  0  0  0  0  0  0  0  0
   30.6129   32.6619   36.4572 N   0  0  0  0  0  0  0  0  0  0  0  0
   30.1982   33.4803   36.8448 H   0  0  0  0  0  0  0  0  0  0  0  0
   32.3598   31.1853   36.5397 O   0  0  0  0  0  0  0  0  0  0  0  0
   32.9033   34.7354   39.4585 C   0  0  0  0  0  0  0  0  0  0  0  0
   33.0076   35.8102   39.4958 H   0  0  0  0  0  0  0  0  0  0  0  0
   28.7607   31.1080   33.0500 N   0  0  0  0  0  0  0  0  0  0  0  0
   32.3805   34.1568   38.3128 C   0  0  0  0  0  0  0  0  0  0  0  0
   32.2377   32.7603   38.2461 C   0  0  0  0  0  0  0  0  0  0  0  0
   32.6740   31.9570   39.3214 C   0  0  0  0  0  0  0  0  0  0  0  0
   33.2822   32.5558   40.4345 C   0  0  0  0  0  0  0  0  0  0  0  0
   33.6400   31.9401   41.2459 H   0  0  0  0  0  0  0  0  0  0  0  0
   31.7366   32.1365   37.0077 C   0  0  0  0  0  0  0  0  0  0  0  0
   29.9457   32.1374   35.3176 C   0  0  0  0  0  0  0  0  0  0  0  0
   30.3461   32.5835   34.0496 C   0  0  0  0  0  0  0  0  0  0  0  0
   31.1301   33.3152   33.9367 H   0  0  0  0  0  0  0  0  0  0  0  0
   29.7089   32.0327   32.9289 C   0  0  0  0  0  0  0  0  0  0  0  0
   29.9807   32.3507   31.9309 H   0  0  0  0  0  0  0  0  0  0  0  0
   28.3864   30.6528   34.2447 C   0  0  0  0  0  0  0  0  0  0  0  0
   27.3861   29.6408   34.2604 N   0  0  0  0  0  0  0  0  0  0  0  0
   27.3810   28.4957   34.9839 C   0  0  0  0  0  0  0  0  0  0  0  0
   26.6486   29.8103   33.6144 H   0  0  0  0  0  0  0  0  0  0  0  0
   28.9040   31.1958   35.4192 C   0  0  0  0  0  0  0  0  0  0  0  0
   28.5296   30.8810   36.3786 H   0  0  0  0  0  0  0  0  0  0  0  0
   26.4333   27.7185   34.9057 O   0  0  0  0  0  0  0  0  0  0  0  0
   29.9704   28.2772   35.3999 C   0  0  0  0  0  0  0  0  0  0  0  0
   30.6842   28.5433   36.1627 H   0  0  0  0  0  0  0  0  0  0  0  0
   30.1194   28.6683   34.4066 H   0  0  0  0  0  0  0  0  0  0  0  0
   28.5329   28.0757   35.8649 C   0  0  0  0  0  0  0  0  0  0  0  0
   28.3460   28.2076   36.9190 H   0  0  0  0  0  0  0  0  0  0  0  0
   29.3805   26.8673   35.4900 C   0  0  0  0  0  0  0  0  0  0  0  0
   29.1649   26.3814   34.5523 H   0  0  0  0  0  0  0  0  0  0  0  0
   29.7328   26.2594   36.3075 H   0  0  0  0  0  0  0  0  0  0  0  0
  1 20  1  0
  2 18  1  0
  3  4  1  0
  3 15  2  0
  3 21  1  0
  4  5  1  0
  4 10  1  0
  4 11  1  0
  5  6  1  0
  6  7  1  0
  6  8  1  0
  6  9  1  0
 12 13  1  0
 12 23  1  0
 12 24  1  0
 14 23  2  0
 15 16  1  0
 15 18  1  0
 17 27  2  0
 17 29  1  0
 18 19  2  0
 19 20  1  0
 19 23  1  0
 20 21  2  0
 21 22  1  0
 24 25  2  0
 24 33  1  0
 25 26  1  0
 25 27  1  0
 27 28  1  0
 29 30  1  0
 29 33  2  0
 30 31  1  0
 30 32  1  0
 31 35  2  0
 31 39  1  0
 33 34  1  0
 36 37  1  0
 36 38  1  0
 36 39  1  0
 36 41  1  0
 39 40  1  0
 39 41  1  0
 41 42  1  0
 41 43  1  0
M  END
> <intraLJ>
23.875    

> <intraEL>
-14.751   

> <intraDihe>
43.358    

> <interLJ>
0.000     

> <interEJ>
0.000     

> <gridLJ>
-7.234    

> <gridEL>
0.000     

> <totalE>
45.249    

> <LGFE>
-7.234  

> <LE>
-0.278  

> <SMILES>
COCc1cc(Cl)c(C(=O)Nc2ccnc(NC(=O)C3CC3)c2)c(Cl)c1

> <atom.dprop.GFE>
-0.9740 -0.6040 -0.0002 -0.0236 -0.3510 0.0929 0.0000 0.0000 0.0000 0.0000 0.0000 -0.6360 0.0000 -0.3180 0.0661 0.0000 0.1630 0.0394 0.0170 0.0523 0.0523 0.0000 0.0000 -0.0872 -0.1341 0.0000 -0.2351 0.0000 0.0756 -0.4130 0.0000 0.0000 -0.1899 0.0000 -2.2560 -0.4542 0.0000 0.0000 -0.6653 0.0000 -0.4505 0.0000 0.0000

> <atom.prop.CLASS>
CLBX CLBX BENC PRPC DMEO PRPC NCLA NCLA NCLA NCLA NCLA FORN NCLA FORO BENC NCLA IMIN BENC BENC BENC BENC NCLA NCLA BENC BENC NCLA GEHC NCLA GEHC FORN NCLA NCLA BENC NCLA FORO PRPC NCLA NCLA PRPC NCLA PRPC NCLA NCLA

> <cluster_id>
1

> <rmsd_to_cluster_rep>
0.00    

> <ligRMSD>
3.01    

> <ligCOMD>
1.25    

$$$$
tyk2_liang_jmc_18_366
     RDKit          3D

 48 50  0  0  0  0  0  0  0  0999 V2000
   34.1506   34.7813   36.8760 Cl  0  0  0  0  0  0  0  0  0  0  0  0
   32.3927   30.1598   39.2570 Cl  0  0  0  0  0  0  0  0  0  0  0  0
   33.8617   32.9250   40.4964 C   0  0  0  0  0  0  0  0  0  0  0  0
   32.9995   32.8883   41.8021 C   0  0  0  0  0  0  0  0  0  0  0  0
   32.8456   34.1759   42.5581 O   0  0  0  0  0  0  0  0  0  0  0  0
   32.0176   34.1495   43.9076 N   0  0  0  0  0  0  0  0  0  0  0  0
   30.6418   33.5107   43.9756 C   0  0  0  0  0  0  0  0  0  0  0  0
   30.2425   33.5902   45.0113 H   0  0  0  0  0  0  0  0  0  0  0  0
   30.6881   32.4353   43.7149 H   0  0  0  0  0  0  0  0  0  0  0  0
   29.9305   34.0202   43.2973 H   0  0  0  0  0  0  0  0  0  0  0  0
   32.2649   35.4474   44.5091 C   0  0  0  0  0  0  0  0  0  0  0  0
   33.3045   35.5157   44.9024 H   0  0  0  0  0  0  0  0  0  0  0  0
   31.5827   35.6359   45.3656 H   0  0  0  0  0  0  0  0  0  0  0  0
   32.1061   36.2662   43.7706 H   0  0  0  0  0  0  0  0  0  0  0  0
   33.4656   32.1031   42.4362 H   0  0  0  0  0  0  0  0  0  0  0  0
   31.9934   32.5328   41.4853 H   0  0  0  0  0  0  0  0  0  0  0  0
   32.7281   32.0278   35.5197 N   0  0  0  0  0  0  0  0  0  0  0  0
   33.7023   31.9631   35.3238 H   0  0  0  0  0  0  0  0  0  0  0  0
   31.1368   32.1428   37.1394 O   0  0  0  0  0  0  0  0  0  0  0  0
   34.3514   31.6993   39.9730 C   0  0  0  0  0  0  0  0  0  0  0  0
   35.3707   31.8858   39.6197 H   0  0  0  0  0  0  0  0  0  0  0  0
   30.4461   32.1218   32.0184 N   0  0  0  0  0  0  0  0  0  0  0  0
   33.6109   31.3218   38.8382 C   0  0  0  0  0  0  0  0  0  0  0  0
   33.3813   32.3282   37.8487 C   0  0  0  0  0  0  0  0  0  0  0  0
   33.7583   33.6585   38.1650 C   0  0  0  0  0  0  0  0  0  0  0  0
   33.8965   33.9923   39.5430 C   0  0  0  0  0  0  0  0  0  0  0  0
   33.8584   35.0239   39.8480 H   0  0  0  0  0  0  0  0  0  0  0  0
   32.3227   32.1659   36.8045 C   0  0  0  0  0  0  0  0  0  0  0  0
   31.9082   31.9982   34.3558 C   0  0  0  0  0  0  0  0  0  0  0  0
   32.5416   32.2845   33.1370 C   0  0  0  0  0  0  0  0  0  0  0  0
   33.6037   32.4678   33.0921 H   0  0  0  0  0  0  0  0  0  0  0  0
   31.7574   32.3358   31.9792 C   0  0  0  0  0  0  0  0  0  0  0  0
   32.2047   32.5700   31.0220 H   0  0  0  0  0  0  0  0  0  0  0  0
   29.8239   31.8095   33.1551 C   0  0  0  0  0  0  0  0  0  0  0  0
   28.4123   31.6184   33.0707 N   0  0  0  0  0  0  0  0  0  0  0  0
   27.6095   30.8404   33.8399 C   0  0  0  0  0  0  0  0  0  0  0  0
   27.9866   32.2744   32.4552 H   0  0  0  0  0  0  0  0  0  0  0  0
   30.5151   31.7859   34.3732 C   0  0  0  0  0  0  0  0  0  0  0  0
   29.9872   31.6229   35.2973 H   0  0  0  0  0  0  0  0  0  0  0  0
   26.4094   31.0947   33.9081 O   0  0  0  0  0  0  0  0  0  0  0  0
   29.3073   28.8679   34.3328 C   0  0  0  0  0  0  0  0  0  0  0  0
   29.9450   28.5517   35.1424 H   0  0  0  0  0  0  0  0  0  0  0  0
   29.7611   29.0421   33.3711 H   0  0  0  0  0  0  0  0  0  0  0  0
   28.0933   29.7127   34.7248 C   0  0  0  0  0  0  0  0  0  0  0  0
   27.9819   29.9206   35.7766 H   0  0  0  0  0  0  0  0  0  0  0  0
   27.9104   28.2600   34.2937 C   0  0  0  0  0  0  0  0  0  0  0  0
   27.4907   28.0836   33.3167 H   0  0  0  0  0  0  0  0  0  0  0  0
   27.6769   27.5598   35.0798 H   0  0  0  0  0  0  0  0  0  0  0  0
  1 25  1  0
  2 23  1  0
  3  4  1  0
  3 20  2  0
  3 26  1  0
  4  5  1  0
  4 15  1  0
  4 16  1  0
  5  6  1  0
  6  7  1  0
  6 11  1  0
  7  8  1  0
  7  9  1  0
  7 10  1  0
 11 12  1  0
 11 13  1  0
 11 14  1  0
 17 18  1  0
 17 28  1  0
 17 29  1  0
 19 28  2  0
 20 21  1  0
 20 23  1  0
 22 32  2  0
 22 34  1  0
 23 24  2  0
 24 25  1  0
 24 28  1  0
 25 26  2  0
 26 27  1  0
 29 30  2  0
 29 38  1  0
 30 31  1  0
 30 32  1  0
 32 33  1  0
 34 35  1  0
 34 38  2  0
 35 36  1  0
 35 37  1  0
 36 40  2  0
 36 44  1  0
 38 39  1  0
 41 42  1  0
 41 43  1  0
 41 44  1  0
 41 46  1  0
 44 45  1  0
 44 46  1  0
 46 47  1  0
 46 48  1  0
M  END
> <intraLJ>
26.030    

> <intraEL>
-16.771   

> <intraDihe>
98.071    

> <interLJ>
0.000     

> <interEJ>
0.000     

> <gridLJ>
-7.442    

> <gridEL>
0.000     

> <totalE>
99.888    

> <LGFE>
-7.442  

> <LE>
-0.266  

> <SMILES>
CN(C)OCc1cc(Cl)c(C(=O)Nc2ccnc(NC(=O)C3CC3)c2)c(Cl)c1

> <atom.dprop.GFE>
-1.2330 -0.9740 -0.0023 -0.0346 -0.2700 -0.1170 -0.0869 0.0000 0.0000 0.0000 0.0796 0.0000 0.0000 0.0000 0.0000 0.0000 -0.8460 0.0000 -0.5350 0.0182 0.0000 -1.1850 0.0523 -0.0377 0.0150 0.0434 0.0000 0.0000 -0.0922 0.0561 0.0000 0.1102 0.0000 -0.1868 -0.3730 0.0000 0.0000 -0.0954 0.0000 0.4550 -0.6896 0.0000 0.0000 -0.8009 0.0000 -0.7120 0.0000 0.0000

> <atom.prop.CLASS>
CLBX CLBX BENC PRPC DMEO GENA PRPC NCLA NCLA NCLA PRPC NCLA NCLA NCLA NCLA NCLA FORN NCLA FORO BENC NCLA IMIN BENC BENC BENC BENC NCLA NCLA BENC BENC NCLA GEHC NCLA GEHC FORN NCLA NCLA BENC NCLA FORO PRPC NCLA NCLA PRPC NCLA PRPC NCLA NCLA

> <cluster_id>
1

> <rmsd_to_cluster_rep>
0.00    

> <ligRMSD>
4.55    

> <ligCOMD>
1.39    

$$$$
tyk2_liang_jmc_19_4gii_1175
     RDKit          3D

 37 39  0  0  0  0  0  0  0  0999 V2000
   28.3065   27.7567   35.8973 C   0  0  0  0  0  0  0  0  0  0  0  0
   32.2943   35.1213   36.3530 C   0  0  0  0  0  0  0  0  0  0  0  0
   32.2715   36.1698   36.0934 H   0  0  0  0  0  0  0  0  0  0  0  0
   29.0994   28.8423   36.2824 C   0  0  0  0  0  0  0  0  0  0  0  0
   29.6754   28.8287   37.1933 H   0  0  0  0  0  0  0  0  0  0  0  0
   29.1467   29.9714   35.4509 C   0  0  0  0  0  0  0  0  0  0  0  0
   32.3529   32.3989   37.0259 C   0  0  0  0  0  0  0  0  0  0  0  0
   30.7501   31.8645   35.1975 C   0  0  0  0  0  0  0  0  0  0  0  0
   31.5457   32.8444   35.9652 C   0  0  0  0  0  0  0  0  0  0  0  0
   33.1213   33.3152   37.7503 C   0  0  0  0  0  0  0  0  0  0  0  0
   33.7348   32.9714   38.5702 H   0  0  0  0  0  0  0  0  0  0  0  0
   33.0930   34.6718   37.4090 C   0  0  0  0  0  0  0  0  0  0  0  0
   27.6574   27.7616   34.7322 N   0  0  0  0  0  0  0  0  0  0  0  0
   28.4338   29.9590   34.2420 C   0  0  0  0  0  0  0  0  0  0  0  0
   28.4427   30.7796   33.5465 H   0  0  0  0  0  0  0  0  0  0  0  0
   27.6941   28.8153   33.9224 C   0  0  0  0  0  0  0  0  0  0  0  0
   27.1404   28.7627   32.9940 H   0  0  0  0  0  0  0  0  0  0  0  0
   29.9689   31.0309   35.9204 N   0  0  0  0  0  0  0  0  0  0  0  0
   29.9469   31.1341   36.9107 H   0  0  0  0  0  0  0  0  0  0  0  0
   30.8497   31.8500   33.9739 O   0  0  0  0  0  0  0  0  0  0  0  0
   31.5174   34.2107   35.6324 C   0  0  0  0  0  0  0  0  0  0  0  0
   30.5243   34.8085   34.3364 Cl  0  0  0  0  0  0  0  0  0  0  0  0
   33.8833   35.6093   38.1424 C   0  0  0  0  0  0  0  0  0  0  0  0
   34.5348   36.3860   38.7434 N   0  0  0  0  0  0  0  0  0  0  0  0
   32.3824   30.7221   37.4920 Cl  0  0  0  0  0  0  0  0  0  0  0  0
   28.1958   26.5834   36.7010 N   0  0  0  0  0  0  0  0  0  0  0  0
   28.0112   25.7570   36.1781 H   0  0  0  0  0  0  0  0  0  0  0  0
   28.2623   26.5499   38.0547 C   0  0  0  0  0  0  0  0  0  0  0  0
   28.3869   27.5448   38.7673 O   0  0  0  0  0  0  0  0  0  0  0  0
   28.0964   25.2110   38.7189 C   0  0  0  0  0  0  0  0  0  0  0  0
   28.0754   25.2665   39.7963 H   0  0  0  0  0  0  0  0  0  0  0  0
   27.2157   24.1379   38.0928 C   0  0  0  0  0  0  0  0  0  0  0  0
   26.6560   23.5197   38.7758 H   0  0  0  0  0  0  0  0  0  0  0  0
   26.7831   24.3461   37.1279 H   0  0  0  0  0  0  0  0  0  0  0  0
   28.7390   23.9641   38.1269 C   0  0  0  0  0  0  0  0  0  0  0  0
   29.2513   24.0679   37.1844 H   0  0  0  0  0  0  0  0  0  0  0  0
   29.1144   23.2395   38.8311 H   0  0  0  0  0  0  0  0  0  0  0  0
  1  4  2  0
  1 13  1  0
  1 26  1  0
  2  3  1  0
  2 12  2  0
  2 21  1  0
  4  5  1  0
  4  6  1  0
  6 14  2  0
  6 18  1  0
  7  9  1  0
  7 10  2  0
  7 25  1  0
  8  9  1  0
  8 18  1  0
  8 20  2  0
  9 21  2  0
 10 11  1  0
 10 12  1  0
 12 23  1  0
 13 16  2  0
 14 15  1  0
 14 16  1  0
 16 17  1  0
 18 19  1  0
 21 22  1  0
 23 24  3  0
 26 27  1  0
 26 28  1  0
 28 29  2  0
 28 30  1  0
 30 31  1  0
 30 32  1  0
 30 35  1  0
 32 33  1  0
 32 34  1  0
 32 35  1  0
 35 36  1  0
 35 37  1  0
M  END
> <intraLJ>
26.383    

> <intraEL>
-14.507   

> <intraDihe>
23.942    

> <interLJ>
0.000     

> <interEJ>
0.000     

> <gridLJ>
-8.341    

> <gridEL>
0.000     

> <totalE>
27.478    

> <LGFE>
-8.341  

> <LE>
-0.334  

> <SMILES>
N#Cc1cc(Cl)c(C(=O)Nc2ccnc(NC(=O)C3CC3)c2)c(Cl)c1

> <atom.dprop.GFE>
-0.3453 0.2679 0.0000 -0.2430 0.0000 -0.3086 -0.0304 0.0000 0.0132 -0.0028 0.0000 0.0514 -1.0780 -0.2911 0.0000 -0.1685 0.0000 -0.6230 0.0000 -0.4850 0.0610 -1.7690 0.0000 0.0000 -0.6820 -1.8690 0.0000 0.0000 -0.5580 -0.2075 0.0000 -0.0553 0.0000 0.0000 -0.0176 0.0000 0.0000

> <atom.prop.CLASS>
GEHC BENC NCLA BENC NCLA BENC BENC NCLA BENC BENC NCLA BENC IMIN BENC NCLA GEHC NCLA FORN NCLA FORO BENC CLBX NCLA NCLA CLBX FORN NCLA NCLA FORO PRPC NCLA PRPC NCLA NCLA PRPC NCLA NCLA

> <cluster_id>
1

> <rmsd_to_cluster_rep>
0.00    

> <ligRMSD>
1.91    

> <ligCOMD>
1.09    

$$$$
tyk2_liang_jmc_20_1105
     RDKit          3D

 38 40  0  0  0  0  0  0  0  0999 V2000
   32.3863   30.2146   38.9888 Cl  0  0  0  0  0  0  0  0  0  0  0  0
   34.2981   34.8683   36.7835 Cl  0  0  0  0  0  0  0  0  0  0  0  0
   35.0119   32.9919   40.2629 C   0  0  0  0  0  0  0  0  0  0  0  0
   31.2739   32.3377   36.7753 N   0  0  0  0  0  0  0  0  0  0  0  0
   30.7898   32.6454   37.5895 H   0  0  0  0  0  0  0  0  0  0  0  0
   33.2853   31.9941   35.7568 O   0  0  0  0  0  0  0  0  0  0  0  0
   35.0328   33.9092   39.2057 C   0  0  0  0  0  0  0  0  0  0  0  0
   35.6743   34.7766   39.2569 H   0  0  0  0  0  0  0  0  0  0  0  0
   28.9034   31.4225   33.4368 N   0  0  0  0  0  0  0  0  0  0  0  0
   34.2253   33.7076   38.0794 C   0  0  0  0  0  0  0  0  0  0  0  0
   33.3783   32.5844   38.0079 C   0  0  0  0  0  0  0  0  0  0  0  0
   33.3911   31.6399   39.0548 C   0  0  0  0  0  0  0  0  0  0  0  0
   34.1909   31.8586   40.1861 C   0  0  0  0  0  0  0  0  0  0  0  0
   34.1810   31.1443   40.9960 H   0  0  0  0  0  0  0  0  0  0  0  0
   32.6326   32.2814   36.7578 C   0  0  0  0  0  0  0  0  0  0  0  0
   30.4397   32.0152   35.6636 C   0  0  0  0  0  0  0  0  0  0  0  0
   30.6409   32.7031   34.4571 C   0  0  0  0  0  0  0  0  0  0  0  0
   31.4023   33.4615   34.3690 H   0  0  0  0  0  0  0  0  0  0  0  0
   29.8335   32.3674   33.3597 C   0  0  0  0  0  0  0  0  0  0  0  0
   29.9532   32.8802   32.4142 H   0  0  0  0  0  0  0  0  0  0  0  0
   28.7176   30.7432   34.5657 C   0  0  0  0  0  0  0  0  0  0  0  0
   27.7125   29.7456   34.5244 N   0  0  0  0  0  0  0  0  0  0  0  0
   27.7772   28.4968   35.0278 C   0  0  0  0  0  0  0  0  0  0  0  0
   26.9143   30.0154   33.9951 H   0  0  0  0  0  0  0  0  0  0  0  0
   29.4187   31.0473   35.7331 C   0  0  0  0  0  0  0  0  0  0  0  0
   29.1867   30.5453   36.6570 H   0  0  0  0  0  0  0  0  0  0  0  0
   26.8177   27.7434   34.9009 O   0  0  0  0  0  0  0  0  0  0  0  0
   30.3798   28.1819   35.0424 C   0  0  0  0  0  0  0  0  0  0  0  0
   31.2062   28.3306   35.7185 H   0  0  0  0  0  0  0  0  0  0  0  0
   30.3967   28.7033   34.0990 H   0  0  0  0  0  0  0  0  0  0  0  0
   29.0185   27.9405   35.6849 C   0  0  0  0  0  0  0  0  0  0  0  0
   28.9904   27.9300   36.7631 H   0  0  0  0  0  0  0  0  0  0  0  0
   29.7603   26.7825   35.0310 C   0  0  0  0  0  0  0  0  0  0  0  0
   29.3938   26.4321   34.0798 H   0  0  0  0  0  0  0  0  0  0  0  0
   30.2085   26.0637   35.6978 H   0  0  0  0  0  0  0  0  0  0  0  0
   35.8325   33.2191   41.4204 C   0  0  0  0  0  0  0  0  0  0  0  0
   36.5285   33.4087   42.4048 C   0  0  0  0  0  0  0  0  0  0  0  0
   37.1408   33.5754   43.2666 H   0  0  0  0  0  0  0  0  0  0  0  0
  1 12  1  0
  2 10  1  0
  3  7  2  0
  3 13  1  0
  3 36  1  0
  4  5  1  0
  4 15  1  0
  4 16  1  0
  6 15  2  0
  7  8  1  0
  7 10  1  0
  9 19  2  0
  9 21  1  0
 10 11  2  0
 11 12  1  0
 11 15  1  0
 12 13  2  0
 13 14  1  0
 16 17  2  0
 16 25  1  0
 17 18  1  0
 17 19  1  0
 19 20  1  0
 21 22  1  0
 21 25  2  0
 22 23  1  0
 22 24  1  0
 23 27  2  0
 23 31  1  0
 25 26  1  0
 28 29  1  0
 28 30  1  0
 28 31  1  0
 28 33  1  0
 31 32  1  0
 31 33  1  0
 33 34  1  0
 33 35  1  0
 36 37  3  0
 37 38  1  0
M  END
> <intraLJ>
22.944    

> <intraEL>
-15.469   

> <intraDihe>
42.648    

> <interLJ>
0.000     

> <interEJ>
0.000     

> <gridLJ>
-7.060    

> <gridEL>
0.000     

> <totalE>
43.063    

> <LGFE>
-7.060  

> <LE>
-0.282  

> <SMILES>
C#Cc1cc(Cl)c(C(=O)Nc2ccnc(NC(=O)C3CC3)c2)c(Cl)c1

> <atom.dprop.GFE>
-0.9740 -1.2330 0.0377 -0.6360 0.0000 -0.0840 0.0401 0.0000 0.1630 0.0150 -0.0234 0.0182 0.0377 0.0000 0.0000 -0.0982 -0.0954 0.0000 -0.1868 0.0000 0.0756 -0.4130 0.0000 0.0000 -0.1795 0.0000 -2.2560 -0.4542 0.0000 0.0000 -0.6653 0.0000 -0.0962 0.0000 0.0000 -0.0310 -0.0216 0.0000

> <atom.prop.CLASS>
CLBX CLBX BENC FORN NCLA FORO BENC NCLA IMIN BENC BENC BENC BENC NCLA NCLA BENC BENC NCLA GEHC NCLA GEHC FORN NCLA NCLA BENC NCLA FORO PRPC NCLA NCLA PRPC NCLA PRPC NCLA NCLA PRPC PRPC NCLA

> <cluster_id>
1

> <rmsd_to_cluster_rep>
0.00    

> <ligRMSD>
2.73    

> <ligCOMD>
0.79    

$$$$
tyk2_liang_jmc_21_695
     RDKit          3D

 43 46  0  0  0  0  0  0  0  0999 V2000
   29.7913   31.8069   38.8090 Cl  0  0  0  0  0  0  0  0  0  0  0  0
   33.7084   34.8884   36.4628 Cl  0  0  0  0  0  0  0  0  0  0  0  0
   32.5398   34.3695   40.2654 C   0  0  0  0  0  0  0  0  0  0  0  0
   30.1396   32.7589   36.0236 N   0  0  0  0  0  0  0  0  0  0  0  0
   29.4303   33.2035   36.5633 H   0  0  0  0  0  0  0  0  0  0  0  0
   32.3726   32.3468   35.7687 O   0  0  0  0  0  0  0  0  0  0  0  0
   33.2266   34.7637   39.1054 C   0  0  0  0  0  0  0  0  0  0  0  0
   34.0598   35.4480   39.1735 H   0  0  0  0  0  0  0  0  0  0  0  0
   28.9059   30.9422   32.4577 N   0  0  0  0  0  0  0  0  0  0  0  0
   32.8264   34.3140   37.8486 C   0  0  0  0  0  0  0  0  0  0  0  0
   31.7467   33.4207   37.7318 C   0  0  0  0  0  0  0  0  0  0  0  0
   31.0935   32.9647   38.8933 C   0  0  0  0  0  0  0  0  0  0  0  0
   31.4623   33.4727   40.1443 C   0  0  0  0  0  0  0  0  0  0  0  0
   30.9348   33.1352   41.0241 H   0  0  0  0  0  0  0  0  0  0  0  0
   31.4366   32.7972   36.4259 C   0  0  0  0  0  0  0  0  0  0  0  0
   29.6831   32.1374   34.8260 C   0  0  0  0  0  0  0  0  0  0  0  0
   30.2502   32.5430   33.6086 C   0  0  0  0  0  0  0  0  0  0  0  0
   31.0062   33.3113   33.5744 H   0  0  0  0  0  0  0  0  0  0  0  0
   29.8186   31.9079   32.4351 C   0  0  0  0  0  0  0  0  0  0  0  0
   30.2256   32.1951   31.4744 H   0  0  0  0  0  0  0  0  0  0  0  0
   28.3760   30.5263   33.6061 C   0  0  0  0  0  0  0  0  0  0  0  0
   27.4283   29.4727   33.5130 N   0  0  0  0  0  0  0  0  0  0  0  0
   27.3698   28.3504   34.2634 C   0  0  0  0  0  0  0  0  0  0  0  0
   26.7921   29.5846   32.7562 H   0  0  0  0  0  0  0  0  0  0  0  0
   28.6849   31.1435   34.8183 C   0  0  0  0  0  0  0  0  0  0  0  0
   28.1807   30.8527   35.7243 H   0  0  0  0  0  0  0  0  0  0  0  0
   26.4856   27.5233   34.0619 O   0  0  0  0  0  0  0  0  0  0  0  0
   29.8749   28.2844   35.0502 C   0  0  0  0  0  0  0  0  0  0  0  0
   30.4600   28.6074   35.8960 H   0  0  0  0  0  0  0  0  0  0  0  0
   30.1419   28.6598   34.0756 H   0  0  0  0  0  0  0  0  0  0  0  0
   28.3984   28.0155   35.3169 C   0  0  0  0  0  0  0  0  0  0  0  0
   28.0581   28.1619   36.3299 H   0  0  0  0  0  0  0  0  0  0  0  0
   29.3509   26.8471   35.1013 C   0  0  0  0  0  0  0  0  0  0  0  0
   29.2945   26.3279   34.1584 H   0  0  0  0  0  0  0  0  0  0  0  0
   29.6165   26.2792   35.9782 H   0  0  0  0  0  0  0  0  0  0  0  0
   33.6387   36.1422   43.2069 N   0  0  0  0  0  0  0  0  0  0  0  0
   33.9989   36.9145   43.7516 H   0  0  0  0  0  0  0  0  0  0  0  0
   33.3855   36.1406   41.8639 C   0  0  0  0  0  0  0  0  0  0  0  0
   33.5566   36.9912   41.2179 H   0  0  0  0  0  0  0  0  0  0  0  0
   32.9507   34.8777   41.5608 C   0  0  0  0  0  0  0  0  0  0  0  0
   32.9648   34.2077   42.8087 C   0  0  0  0  0  0  0  0  0  0  0  0
   32.6623   33.1800   42.9672 H   0  0  0  0  0  0  0  0  0  0  0  0
   33.3737   34.9698   43.8025 N   0  0  0  0  0  0  0  0  0  0  0  0
  1 12  1  0
  2 10  1  0
  3  7  2  0
  3 13  1  0
  3 40  1  0
  4  5  1  0
  4 15  1  0
  4 16  1  0
  6 15  2  0
  7  8  1  0
  7 10  1  0
  9 19  2  0
  9 21  1  0
 10 11  2  0
 11 12  1  0
 11 15  1  0
 12 13  2  0
 13 14  1  0
 16 17  2  0
 16 25  1  0
 17 18  1  0
 17 19  1  0
 19 20  1  0
 21 22  1  0
 21 25  2  0
 22 23  1  0
 22 24  1  0
 23 27  2  0
 23 31  1  0
 25 26  1  0
 28 29  1  0
 28 30  1  0
 28 31  1  0
 28 33  1  0
 31 32  1  0
 31 33  1  0
 33 34  1  0
 33 35  1  0
 36 37  1  0
 36 38  1  0
 36 43  1  0
 38 39  1  0
 38 40  2  0
 40 41  1  0
 41 42  1  0
 41 43  2  0
M  END
> <intraLJ>
26.230    

> <intraEL>
-16.234   

> <intraDihe>
43.028    

> <interLJ>
0.000     

> <interEJ>
0.000     

> <gridLJ>
-6.549    

> <gridEL>
0.000     

> <totalE>
46.474    

> <LGFE>
-6.549  

> <LE>
-0.234  

> <SMILES>
O=C(Nc1ccnc(NC(=O)C2CC2)c1)c1c(Cl)cc(-c2cn[nH]c2)cc1Cl

> <atom.dprop.GFE>
-0.4980 -1.2330 0.0514 -0.5800 0.0000 -0.1780 0.0661 0.0000 1.1870 0.0514 -0.0631 0.0095 0.1520 0.0000 0.0000 -0.1341 -0.1182 0.0000 -0.2351 0.0000 0.0253 -0.8600 0.0000 0.0000 -0.2405 0.0000 -2.2560 -0.4542 0.0000 0.0000 -0.6653 0.0000 -0.4505 0.0000 0.0000 -0.0500 0.0000 0.0633 0.0000 0.0433 -0.0656 0.0000 -0.1170

> <atom.prop.CLASS>
CLBX CLBX BENC FORN NCLA FORO BENC NCLA IMIN BENC BENC BENC BENC NCLA NCLA BENC BENC NCLA GEHC NCLA GEHC FORN NCLA NCLA BENC NCLA FORO PRPC NCLA NCLA PRPC NCLA PRPC NCLA NCLA IMIH NCLA GEHC NCLA GEHC GEHC NCLA IMIN

> <cluster_id>
1

> <rmsd_to_cluster_rep>
0.00    

> <ligRMSD>
3.03    

> <ligCOMD>
0.95    

$$$$
tyk2_liang_jmc_22_1196
     RDKit          3D

 42 45  0  0  0  0  0  0  0  0999 V2000
   29.8461   31.7705   38.8286 Cl  0  0  0  0  0  0  0  0  0  0  0  0
   33.6796   34.7826   36.2983 Cl  0  0  0  0  0  0  0  0  0  0  0  0
   32.6388   34.3675   40.1668 C   0  0  0  0  0  0  0  0  0  0  0  0
   30.1129   32.7306   35.9745 N   0  0  0  0  0  0  0  0  0  0  0  0
   29.4282   33.2356   36.4924 H   0  0  0  0  0  0  0  0  0  0  0  0
   32.3125   32.1744   35.7387 O   0  0  0  0  0  0  0  0  0  0  0  0
   33.2660   34.7597   38.9676 C   0  0  0  0  0  0  0  0  0  0  0  0
   34.0913   35.4561   38.9911 H   0  0  0  0  0  0  0  0  0  0  0  0
   28.7844   30.8877   32.4483 N   0  0  0  0  0  0  0  0  0  0  0  0
   32.8429   34.2602   37.7331 C   0  0  0  0  0  0  0  0  0  0  0  0
   31.7673   33.3572   37.6679 C   0  0  0  0  0  0  0  0  0  0  0  0
   31.1584   32.9206   38.8598 C   0  0  0  0  0  0  0  0  0  0  0  0
   31.5794   33.4394   40.0909 C   0  0  0  0  0  0  0  0  0  0  0  0
   31.0876   33.1125   40.9958 H   0  0  0  0  0  0  0  0  0  0  0  0
   31.4100   32.7062   36.3814 C   0  0  0  0  0  0  0  0  0  0  0  0
   29.6281   32.0955   34.7929 C   0  0  0  0  0  0  0  0  0  0  0  0
   30.1320   32.5191   33.5537 C   0  0  0  0  0  0  0  0  0  0  0  0
   30.8637   33.3086   33.4905 H   0  0  0  0  0  0  0  0  0  0  0  0
   29.6692   31.8767   32.3953 C   0  0  0  0  0  0  0  0  0  0  0  0
   30.0283   32.1795   31.4203 H   0  0  0  0  0  0  0  0  0  0  0  0
   28.3165   30.4570   33.6170 C   0  0  0  0  0  0  0  0  0  0  0  0
   27.3939   29.3839   33.5521 N   0  0  0  0  0  0  0  0  0  0  0  0
   27.3719   28.2756   34.3192 C   0  0  0  0  0  0  0  0  0  0  0  0
   26.7509   29.4653   32.7973 H   0  0  0  0  0  0  0  0  0  0  0  0
   28.6588   31.0739   34.8206 C   0  0  0  0  0  0  0  0  0  0  0  0
   28.1973   30.7664   35.7436 H   0  0  0  0  0  0  0  0  0  0  0  0
   26.5066   27.4270   34.1306 O   0  0  0  0  0  0  0  0  0  0  0  0
   29.8914   28.2140   35.0416 C   0  0  0  0  0  0  0  0  0  0  0  0
   30.5072   28.5727   35.8504 H   0  0  0  0  0  0  0  0  0  0  0  0
   30.1330   28.5330   34.0406 H   0  0  0  0  0  0  0  0  0  0  0  0
   28.4201   27.9818   35.3666 C   0  0  0  0  0  0  0  0  0  0  0  0
   28.1130   28.1871   36.3801 H   0  0  0  0  0  0  0  0  0  0  0  0
   29.3501   26.7897   35.1857 C   0  0  0  0  0  0  0  0  0  0  0  0
   29.2571   26.2216   34.2744 H   0  0  0  0  0  0  0  0  0  0  0  0
   29.6366   26.2656   36.0831 H   0  0  0  0  0  0  0  0  0  0  0  0
   34.2061   35.9299   42.9621 C   0  0  0  0  0  0  0  0  0  0  0  0
   34.9804   36.5169   43.4558 H   0  0  0  0  0  0  0  0  0  0  0  0
   34.2085   35.6528   41.6351 N   0  0  0  0  0  0  0  0  0  0  0  0
   34.8843   35.9327   40.9396 H   0  0  0  0  0  0  0  0  0  0  0  0
   33.0755   34.9096   41.4599 C   0  0  0  0  0  0  0  0  0  0  0  0
   32.4548   34.7679   42.6292 N   0  0  0  0  0  0  0  0  0  0  0  0
   33.1486   35.3929   43.5465 N   0  0  0  0  0  0  0  0  0  0  0  0
  1 12  1  0
  2 10  1  0
  3  7  2  0
  3 13  1  0
  3 40  1  0
  4  5  1  0
  4 15  1  0
  4 16  1  0
  6 15  2  0
  7  8  1  0
  7 10  1  0
  9 19  2  0
  9 21  1  0
 10 11  2  0
 11 12  1  0
 11 15  1  0
 12 13  2  0
 13 14  1  0
 16 17  2  0
 16 25  1  0
 17 18  1  0
 17 19  1  0
 19 20  1  0
 21 22  1  0
 21 25  2  0
 22 23  1  0
 22 24  1  0
 23 27  2  0
 23 31  1  0
 25 26  1  0
 28 29  1  0
 28 30  1  0
 28 31  1  0
 28 33  1  0
 31 32  1  0
 31 33  1  0
 33 34  1  0
 33 35  1  0
 36 37  1  0
 36 38  1  0
 36 42  2  0
 38 39  1  0
 38 40  1  0
 40 41  2  0
 41 42  1  0
M  END
> <intraLJ>
26.038    

> <intraEL>
-15.951   

> <intraDihe>
42.800    

> <interLJ>
0.000     

> <interEJ>
0.000     

> <gridLJ>
-6.769    

> <gridEL>
0.000     

> <totalE>
46.118    

> <LGFE>
-6.769  

> <LE>
-0.242  

> <SMILES>
O=C(Nc1ccnc(NC(=O)C2CC2)c1)c1c(Cl)cc(-c2nnc[nH]2)cc1Cl

> <atom.dprop.GFE>
-0.4980 -1.2330 0.0514 -0.5800 0.0000 -0.1780 0.0569 0.0000 1.1870 0.0514 -0.0631 0.0095 0.1520 0.0000 0.0000 -0.1341 -0.1182 0.0000 -0.2351 0.0000 0.0253 -0.8600 0.0000 0.0000 -0.2405 0.0000 -2.2560 -0.4542 0.0000 0.0000 -0.6653 0.0000 -0.4505 0.0000 0.0000 0.0406 0.0000 0.0690 0.0000 0.0433 -0.3720 -0.1170

> <atom.prop.CLASS>
CLBX CLBX BENC FORN NCLA FORO BENC NCLA IMIN BENC BENC BENC BENC NCLA NCLA BENC BENC NCLA GEHC NCLA GEHC FORN NCLA NCLA BENC NCLA FORO PRPC NCLA NCLA PRPC NCLA PRPC NCLA NCLA GEHC NCLA IMIH NCLA GEHC IMIN IMIN

> <cluster_id>
1

> <rmsd_to_cluster_rep>
0.00    

> <ligRMSD>
2.88    

> <ligCOMD>
0.84    

$$$$
tyk2_liang_jmc_23_4gj2_83
     RDKit          3D

 36 38  0  0  1  0  0  0  0  0999 V2000
   33.0261   34.7237   37.3650 C   0  0  0  0  0  0  0  0  0  0  0  0
   32.2176   35.1601   36.3091 C   0  0  0  0  0  0  0  0  0  0  0  0
   31.4420   34.2424   35.5883 C   0  0  0  0  0  0  0  0  0  0  0  0
   31.4776   32.8750   35.9242 C   0  0  0  0  0  0  0  0  0  0  0  0
   32.2955   32.4397   36.9810 C   0  0  0  0  0  0  0  0  0  0  0  0
   33.0603   33.3653   37.7023 C   0  0  0  0  0  0  0  0  0  0  0  0
   32.3444   30.7592   37.4404 Cl  0  0  0  0  0  0  0  0  0  0  0  0
   30.7166   31.8676   35.1493 C   0  0  0  0  0  0  0  0  0  0  0  0
   30.9104   31.7707   33.9409 O   0  0  0  0  0  0  0  0  0  0  0  0
   29.8681   31.0862   35.8502 N   0  0  0  0  0  0  0  0  0  0  0  0
   29.1144   29.9764   35.3802 C   0  0  0  0  0  0  0  0  0  0  0  0
   28.5187   29.8452   34.1161 C   0  0  0  0  0  0  0  0  0  0  0  0
   27.8627   28.6427   33.8186 C   0  0  0  0  0  0  0  0  0  0  0  0
   27.7859   27.6510   34.7020 N   0  0  0  0  0  0  0  0  0  0  0  0
   28.3260   27.7643   35.9161 C   0  0  0  0  0  0  0  0  0  0  0  0
   29.0351   28.9109   36.2837 C   0  0  0  0  0  0  0  0  0  0  0  0
   28.2247   26.6382   36.7826 N   0  0  0  0  0  0  0  0  0  0  0  0
   29.1960   26.1858   37.6091 C   0  0  0  0  0  0  0  0  0  0  0  0
   30.2546   26.7720   37.8362 O   0  0  0  0  0  0  0  0  0  0  0  0
   28.8639   24.9582   38.4038 C   0  0  1  0  0  0  0  0  0  0  0  0
   28.2069   25.1186   39.7762 C   0  0  0  0  0  0  0  0  0  0  0  0
   27.4120   24.5670   38.5853 C   0  0  1  0  0  0  0  0  0  0  0  0
   26.4019   25.2787   37.9786 F   0  0  0  0  0  0  0  0  0  0  0  0
   30.4304   34.8350   34.3019 Cl  0  0  0  0  0  0  0  0  0  0  0  0
   29.5764   24.1525   38.3213 H   0  0  0  0  0  0  0  0  0  0  0  0
   27.2163   23.5055   38.6195 H   0  0  0  0  0  0  0  0  0  0  0  0
   33.6199   35.4341   37.9210 H   0  0  0  0  0  0  0  0  0  0  0  0
   32.1870   36.2081   36.0505 H   0  0  0  0  0  0  0  0  0  0  0  0
   33.6804   33.0275   38.5193 H   0  0  0  0  0  0  0  0  0  0  0  0
   29.7569   31.2519   36.8259 H   0  0  0  0  0  0  0  0  0  0  0  0
   28.5701   30.6134   33.3642 H   0  0  0  0  0  0  0  0  0  0  0  0
   27.4047   28.4948   32.8494 H   0  0  0  0  0  0  0  0  0  0  0  0
   29.5424   28.9932   37.2305 H   0  0  0  0  0  0  0  0  0  0  0  0
   27.3413   26.1823   36.7365 H   0  0  0  0  0  0  0  0  0  0  0  0
   28.5021   24.4036   40.5259 H   0  0  0  0  0  0  0  0  0  0  0  0
   27.9434   26.1121   40.0988 H   0  0  0  0  0  0  0  0  0  0  0  0
  1  2  2  0
  1  6  1  0
  1 27  1  0
  2  3  1  0
  2 28  1  0
  3  4  2  0
  3 24  1  0
  4  5  1  0
  4  8  1  0
  5  6  2  0
  5  7  1  0
  6 29  1  0
  8  9  2  0
  8 10  1  0
 10 11  1  0
 10 30  1  0
 11 12  2  0
 11 16  1  0
 12 13  1  0
 12 31  1  0
 13 14  2  0
 13 32  1  0
 14 15  1  0
 15 16  2  0
 15 17  1  0
 16 33  1  0
 17 18  1  0
 17 34  1  0
 18 19  2  0
 18 20  1  0
 20 21  1  0
 20 22  1  0
 20 25  1  1
 21 22  1  0
 21 35  1  0
 21 36  1  0
 22 23  1  0
 22 26  1  1
M  END
> <intraLJ>
29.407    

> <intraEL>
-17.705   

> <intraDihe>
31.698    

> <interLJ>
0.000     

> <interEJ>
0.000     

> <gridLJ>
-8.651    

> <gridEL>
0.000     

> <totalE>
34.749    

> <LGFE>
-8.651  

> <LE>
-0.360  

> <SMILES>
O=C(Nc1ccnc(NC(=O)[C@H]2C[C@H]2F)c1)c1c(Cl)cccc1Cl

> <atom.dprop.GFE>
0.0514 0.2679 0.0610 0.0132 -0.0304 -0.0028 -0.6820 0.0000 -0.4850 -0.6230 -0.3086 -0.2911 -0.1935 -1.0780 -0.3453 -0.2430 -1.8690 0.0000 -0.8080 -0.0839 -0.2664 -0.1758 0.2100 -1.7690 0.0000 0.0000 0.0000 0.0000 0.0000 0.0000 0.0000 0.0000 0.0000 0.0000 0.0000 0.0000

> <atom.prop.CLASS>
BENC BENC BENC BENC BENC BENC CLBX NCLA FORO FORN BENC BENC GEHC IMIN GEHC BENC FORN NCLA FORO PRPC PRPC PRPC FETX CLBX NCLA NCLA NCLA NCLA NCLA NCLA NCLA NCLA NCLA NCLA NCLA NCLA

> <cluster_id>
1

> <rmsd_to_cluster_rep>
0.00    

> <ligRMSD>
1.82    

> <ligCOMD>
0.90    

$$$$
tyk2_liang_jmc_24_37
     RDKit          3D

 36 38  0  0  1  0  0  0  0  0999 V2000
   33.3417   34.1475   37.3026 C   0  0  0  0  0  0  0  0  0  0  0  0
   32.4402   34.7638   36.4268 C   0  0  0  0  0  0  0  0  0  0  0  0
   31.5108   33.9961   35.7126 C   0  0  0  0  0  0  0  0  0  0  0  0
   31.4870   32.5958   35.8742 C   0  0  0  0  0  0  0  0  0  0  0  0
   32.3986   31.9786   36.7502 C   0  0  0  0  0  0  0  0  0  0  0  0
   33.3162   32.7574   37.4666 C   0  0  0  0  0  0  0  0  0  0  0  0
   32.3794   30.2526   37.0004 Cl  0  0  0  0  0  0  0  0  0  0  0  0
   30.5646   31.7456   35.0869 C   0  0  0  0  0  0  0  0  0  0  0  0
   30.5763   31.8207   33.8613 O   0  0  0  0  0  0  0  0  0  0  0  0
   29.7804   30.9041   35.7931 N   0  0  0  0  0  0  0  0  0  0  0  0
   28.9099   29.8940   35.3003 C   0  0  0  0  0  0  0  0  0  0  0  0
   28.1650   29.9382   34.1117 C   0  0  0  0  0  0  0  0  0  0  0  0
   27.3927   28.8169   33.7762 C   0  0  0  0  0  0  0  0  0  0  0  0
   27.3487   27.7386   34.5534 N   0  0  0  0  0  0  0  0  0  0  0  0
   28.0321   27.6852   35.6964 C   0  0  0  0  0  0  0  0  0  0  0  0
   28.8591   28.7411   36.0926 C   0  0  0  0  0  0  0  0  0  0  0  0
   27.9430   26.4767   36.4441 N   0  0  0  0  0  0  0  0  0  0  0  0
   28.1944   26.3556   37.7655 C   0  0  0  0  0  0  0  0  0  0  0  0
   28.3898   27.3047   38.5228 O   0  0  0  0  0  0  0  0  0  0  0  0
   28.0758   24.9821   38.3505 C   0  0  2  0  0  0  0  0  0  0  0  0
   27.3888   24.7852   39.6996 C   0  0  0  0  0  0  0  0  0  0  0  0
   28.9133   24.6635   39.5806 C   0  0  2  0  0  0  0  0  0  0  0  0
   29.7662   25.5767   40.1693 F   0  0  0  0  0  0  0  0  0  0  0  0
   30.3953   34.8134   34.6520 Cl  0  0  0  0  0  0  0  0  0  0  0  0
   27.9579   24.1826   37.6362 H   0  0  0  0  0  0  0  0  0  0  0  0
   29.2931   23.6542   39.6314 H   0  0  0  0  0  0  0  0  0  0  0  0
   34.0537   34.7439   37.8537 H   0  0  0  0  0  0  0  0  0  0  0  0
   32.4576   35.8364   36.3026 H   0  0  0  0  0  0  0  0  0  0  0  0
   34.0083   32.2816   38.1454 H   0  0  0  0  0  0  0  0  0  0  0  0
   29.8209   30.9339   36.7878 H   0  0  0  0  0  0  0  0  0  0  0  0
   28.1826   30.7824   33.4445 H   0  0  0  0  0  0  0  0  0  0  0  0
   26.8151   28.8049   32.8612 H   0  0  0  0  0  0  0  0  0  0  0  0
   29.4732   28.6881   36.9764 H   0  0  0  0  0  0  0  0  0  0  0  0
   27.6595   25.6920   35.9016 H   0  0  0  0  0  0  0  0  0  0  0  0
   27.0181   25.6648   40.1997 H   0  0  0  0  0  0  0  0  0  0  0  0
   26.8495   23.8610   39.8262 H   0  0  0  0  0  0  0  0  0  0  0  0
  1  2  2  0
  1  6  1  0
  1 27  1  0
  2  3  1  0
  2 28  1  0
  3  4  2  0
  3 24  1  0
  4  5  1  0
  4  8  1  0
  5  6  2  0
  5  7  1  0
  6 29  1  0
  8  9  2  0
  8 10  1  0
 10 11  1  0
 10 30  1  0
 11 12  2  0
 11 16  1  0
 12 13  1  0
 12 31  1  0
 13 14  2  0
 13 32  1  0
 14 15  1  0
 15 16  2  0
 15 17  1  0
 16 33  1  0
 17 18  1  0
 17 34  1  0
 18 19  2  0
 18 20  1  0
 20 21  1  0
 20 22  1  0
 20 25  1  6
 21 22  1  0
 21 35  1  0
 21 36  1  0
 22 23  1  0
 22 26  1  6
M  END
> <intraLJ>
27.296    

> <intraEL>
-16.944   

> <intraDihe>
41.653    

> <interLJ>
0.000     

> <interEJ>
0.000     

> <gridLJ>
-9.281    

> <gridEL>
0.000     

> <totalE>
42.725    

> <LGFE>
-9.281  

> <LE>
-0.387  

> <SMILES>
O=C(Nc1ccnc(NC(=O)[C@@H]2C[C@@H]2F)c1)c1c(Cl)cccc1Cl

> <atom.dprop.GFE>
0.0514 0.0579 0.0610 -0.0381 0.0144 -0.0377 -0.6820 0.0000 -0.4850 -0.6230 -0.3086 -0.2248 -0.1685 -1.7190 -0.3453 -0.2735 -1.8690 0.0000 -0.5580 -0.2075 -0.2664 -0.2308 0.3410 -1.7690 0.0000 0.0000 0.0000 0.0000 0.0000 0.0000 0.0000 0.0000 0.0000 0.0000 0.0000 0.0000

> <atom.prop.CLASS>
BENC BENC BENC BENC BENC BENC CLBX NCLA FORO FORN BENC BENC GEHC IMIN GEHC BENC FORN NCLA FORO PRPC PRPC PRPC FETX CLBX NCLA NCLA NCLA NCLA NCLA NCLA NCLA NCLA NCLA NCLA NCLA NCLA

> <cluster_id>
1

> <rmsd_to_cluster_rep>
0.00    

> <ligRMSD>
1.71    

> <ligCOMD>
1.02    

$$$$
tyk2_liang_jmc_25_105
     RDKit          3D

 36 38  0  0  1  0  0  0  0  0999 V2000
   33.1510   34.6274   37.3189 C   0  0  0  0  0  0  0  0  0  0  0  0
   32.3375   35.1022   36.2835 C   0  0  0  0  0  0  0  0  0  0  0  0
   31.5313   34.2162   35.5565 C   0  0  0  0  0  0  0  0  0  0  0  0
   31.5413   32.8420   35.8654 C   0  0  0  0  0  0  0  0  0  0  0  0
   32.3643   32.3681   36.9015 C   0  0  0  0  0  0  0  0  0  0  0  0
   33.1597   33.2622   37.6293 C   0  0  0  0  0  0  0  0  0  0  0  0
   32.3821   30.6782   37.3278 Cl  0  0  0  0  0  0  0  0  0  0  0  0
   30.7472   31.8671   35.0821 C   0  0  0  0  0  0  0  0  0  0  0  0
   30.8940   31.8166   33.8643 O   0  0  0  0  0  0  0  0  0  0  0  0
   29.9234   31.0612   35.7847 N   0  0  0  0  0  0  0  0  0  0  0  0
   29.1482   29.9716   35.3025 C   0  0  0  0  0  0  0  0  0  0  0  0
   28.5077   29.8882   34.0562 C   0  0  0  0  0  0  0  0  0  0  0  0
   27.8351   28.6999   33.7396 C   0  0  0  0  0  0  0  0  0  0  0  0
   27.7840   27.6776   34.5894 N   0  0  0  0  0  0  0  0  0  0  0  0
   28.3661   27.7456   35.7874 C   0  0  0  0  0  0  0  0  0  0  0  0
   29.0944   28.8749   36.1702 C   0  0  0  0  0  0  0  0  0  0  0  0
   28.2843   26.5916   36.6189 N   0  0  0  0  0  0  0  0  0  0  0  0
   28.3694   26.5798   37.9704 C   0  0  0  0  0  0  0  0  0  0  0  0
   28.3905   27.5818   38.6841 O   0  0  0  0  0  0  0  0  0  0  0  0
   28.3099   25.2356   38.6252 C   0  0  1  0  0  0  0  0  0  0  0  0
   29.0061   25.0224   39.9693 C   0  0  0  0  0  0  0  0  0  0  0  0
   27.4778   24.9874   39.8678 C   0  0  2  0  0  0  0  0  0  0  0  0
   26.7886   23.8057   40.0187 F   0  0  0  0  0  0  0  0  0  0  0  0
   30.5153   34.8564   34.2966 Cl  0  0  0  0  0  0  0  0  0  0  0  0
   28.3785   24.4145   37.9282 H   0  0  0  0  0  0  0  0  0  0  0  0
   26.9594   25.8391   40.2814 H   0  0  0  0  0  0  0  0  0  0  0  0
   33.7684   35.3135   37.8798 H   0  0  0  0  0  0  0  0  0  0  0  0
   32.3267   36.1556   36.0457 H   0  0  0  0  0  0  0  0  0  0  0  0
   33.7836   32.8949   38.4304 H   0  0  0  0  0  0  0  0  0  0  0  0
   29.8509   31.1895   36.7696 H   0  0  0  0  0  0  0  0  0  0  0  0
   28.5369   30.6825   33.3308 H   0  0  0  0  0  0  0  0  0  0  0  0
   27.3427   28.5884   32.7824 H   0  0  0  0  0  0  0  0  0  0  0  0
   29.6333   28.9208   37.1020 H   0  0  0  0  0  0  0  0  0  0  0  0
   28.1553   25.7465   36.1092 H   0  0  0  0  0  0  0  0  0  0  0  0
   29.4918   24.0708   40.1082 H   0  0  0  0  0  0  0  0  0  0  0  0
   29.4304   25.8841   40.4573 H   0  0  0  0  0  0  0  0  0  0  0  0
  1  2  2  0
  1  6  1  0
  1 27  1  0
  2  3  1  0
  2 28  1  0
  3  4  2  0
  3 24  1  0
  4  5  1  0
  4  8  1  0
  5  6  2  0
  5  7  1  0
  6 29  1  0
  8  9  2  0
  8 10  1  0
 10 11  1  0
 10 30  1  0
 11 12  2  0
 11 16  1  0
 12 13  1  0
 12 31  1  0
 13 14  2  0
 13 32  1  0
 14 15  1  0
 15 16  2  0
 15 17  1  0
 16 33  1  0
 17 18  1  0
 17 34  1  0
 18 19  2  0
 18 20  1  0
 20 21  1  0
 20 22  1  0
 20 25  1  6
 21 22  1  0
 21 35  1  0
 21 36  1  0
 22 23  1  0
 22 26  1  1
M  END
> <intraLJ>
25.837    

> <intraEL>
-17.332   

> <intraDihe>
42.160    

> <interLJ>
0.000     

> <interEJ>
0.000     

> <gridLJ>
-8.702    

> <gridEL>
0.000     

> <totalE>
41.963    

> <LGFE>
-8.702  

> <LE>
-0.363  

> <SMILES>
O=C(Nc1ccnc(NC(=O)[C@H]2C[C@@H]2F)c1)c1c(Cl)cccc1Cl

> <atom.dprop.GFE>
0.0514 0.2679 0.0610 0.0132 0.0301 -0.0028 -0.6820 0.0000 -0.4850 -0.6230 -0.3086 -0.2911 -0.1935 -1.0780 -0.3453 -0.2430 -1.8690 0.0000 -0.5580 -0.2075 -0.2814 -0.2664 0.0780 -1.7690 0.0000 0.0000 0.0000 0.0000 0.0000 0.0000 0.0000 0.0000 0.0000 0.0000 0.0000 0.0000

> <atom.prop.CLASS>
BENC BENC BENC BENC BENC BENC CLBX NCLA FORO FORN BENC BENC GEHC IMIN GEHC BENC FORN NCLA FORO PRPC PRPC PRPC FETX CLBX NCLA NCLA NCLA NCLA NCLA NCLA NCLA NCLA NCLA NCLA NCLA NCLA

> <cluster_id>
1

> <rmsd_to_cluster_rep>
0.00    

> <ligRMSD>
1.68    

> <ligCOMD>
0.83    

$$$$
tyk2_liang_jmc_26_1095
     RDKit          3D

 36 38  0  0  1  0  0  0  0  0999 V2000
   33.1258   34.7022   37.2055 C   0  0  0  0  0  0  0  0  0  0  0  0
   32.3036   35.1445   36.1626 C   0  0  0  0  0  0  0  0  0  0  0  0
   31.4960   34.2353   35.4666 C   0  0  0  0  0  0  0  0  0  0  0  0
   31.5132   32.8704   35.8143 C   0  0  0  0  0  0  0  0  0  0  0  0
   32.3449   32.4291   36.8579 C   0  0  0  0  0  0  0  0  0  0  0  0
   33.1417   33.3465   37.5545 C   0  0  0  0  0  0  0  0  0  0  0  0
   32.3719   30.7521   37.3318 Cl  0  0  0  0  0  0  0  0  0  0  0  0
   30.7177   31.8708   35.0644 C   0  0  0  0  0  0  0  0  0  0  0  0
   30.8526   31.7897   33.8468 O   0  0  0  0  0  0  0  0  0  0  0  0
   29.9061   31.0784   35.7957 N   0  0  0  0  0  0  0  0  0  0  0  0
   29.1333   29.9721   35.3491 C   0  0  0  0  0  0  0  0  0  0  0  0
   28.5967   29.7904   34.0650 C   0  0  0  0  0  0  0  0  0  0  0  0
   27.9085   28.5979   33.8013 C   0  0  0  0  0  0  0  0  0  0  0  0
   27.7479   27.6623   34.7335 N   0  0  0  0  0  0  0  0  0  0  0  0
   28.2316   27.8256   35.9657 C   0  0  0  0  0  0  0  0  0  0  0  0
   28.9662   28.9645   36.3052 C   0  0  0  0  0  0  0  0  0  0  0  0
   28.0437   26.7577   36.8895 N   0  0  0  0  0  0  0  0  0  0  0  0
   28.9755   26.2825   37.7496 C   0  0  0  0  0  0  0  0  0  0  0  0
   30.0736   26.7969   37.9565 O   0  0  0  0  0  0  0  0  0  0  0  0
   28.5481   25.1426   38.6158 C   0  0  2  0  0  0  0  0  0  0  0  0
   27.7395   23.9975   38.0149 C   0  0  0  0  0  0  0  0  0  0  0  0
   27.0795   24.9934   38.9743 C   0  0  1  0  0  0  0  0  0  0  0  0
   26.6869   24.6220   40.2375 F   0  0  0  0  0  0  0  0  0  0  0  0
   30.4691   34.8357   34.1958 Cl  0  0  0  0  0  0  0  0  0  0  0  0
   29.2480   24.8838   39.3949 H   0  0  0  0  0  0  0  0  0  0  0  0
   26.3879   25.6827   38.5137 H   0  0  0  0  0  0  0  0  0  0  0  0
   33.7443   35.4062   37.7425 H   0  0  0  0  0  0  0  0  0  0  0  0
   32.2873   36.1906   35.8950 H   0  0  0  0  0  0  0  0  0  0  0  0
   33.7724   33.0043   38.3615 H   0  0  0  0  0  0  0  0  0  0  0  0
   29.8425   31.2315   36.7777 H   0  0  0  0  0  0  0  0  0  0  0  0
   28.7164   30.5115   33.2752 H   0  0  0  0  0  0  0  0  0  0  0  0
   27.4938   28.4115   32.8193 H   0  0  0  0  0  0  0  0  0  0  0  0
   29.4283   29.0823   37.2713 H   0  0  0  0  0  0  0  0  0  0  0  0
   27.1282   26.3681   36.8629 H   0  0  0  0  0  0  0  0  0  0  0  0
   27.4715   24.0780   36.9744 H   0  0  0  0  0  0  0  0  0  0  0  0
   27.9389   23.0171   38.4157 H   0  0  0  0  0  0  0  0  0  0  0  0
  1  2  2  0
  1  6  1  0
  1 27  1  0
  2  3  1  0
  2 28  1  0
  3  4  2  0
  3 24  1  0
  4  5  1  0
  4  8  1  0
  5  6  2  0
  5  7  1  0
  6 29  1  0
  8  9  2  0
  8 10  1  0
 10 11  1  0
 10 30  1  0
 11 12  2  0
 11 16  1  0
 12 13  1  0
 12 31  1  0
 13 14  2  0
 13 32  1  0
 14 15  1  0
 15 16  2  0
 15 17  1  0
 16 33  1  0
 17 18  1  0
 17 34  1  0
 18 19  2  0
 18 20  1  0
 20 21  1  0
 20 22  1  0
 20 25  1  1
 21 22  1  0
 21 35  1  0
 21 36  1  0
 22 23  1  0
 22 26  1  6
M  END
> <intraLJ>
26.022    

> <intraEL>
-16.751   

> <intraDihe>
27.592    

> <interLJ>
0.000     

> <interEJ>
0.000     

> <gridLJ>
-8.419    

> <gridEL>
0.000     

> <totalE>
28.445    

> <LGFE>
-8.419  

> <LE>
-0.351  

> <SMILES>
O=C(Nc1ccnc(NC(=O)[C@@H]2C[C@H]2F)c1)c1c(Cl)cccc1Cl

> <atom.dprop.GFE>
0.0514 0.2679 0.0610 0.0132 0.0301 -0.0028 -0.6820 0.0000 -0.4850 -0.6230 -0.3086 -0.2911 -0.1935 -1.0780 -0.1675 -0.2430 -1.8690 0.0000 -0.8080 -0.0839 -0.1758 -0.1399 0.0780 -1.7690 0.0000 0.0000 0.0000 0.0000 0.0000 0.0000 0.0000 0.0000 0.0000 0.0000 0.0000 0.0000

> <atom.prop.CLASS>
BENC BENC BENC BENC BENC BENC CLBX NCLA FORO FORN BENC BENC GEHC IMIN GEHC BENC FORN NCLA FORO PRPC PRPC PRPC FETX CLBX NCLA NCLA NCLA NCLA NCLA NCLA NCLA NCLA NCLA NCLA NCLA NCLA

> <cluster_id>
1

> <rmsd_to_cluster_rep>
0.00    

> <ligRMSD>
1.99    

> <ligCOMD>
1.01    

$$$$
tyk2_liang_jmc_27_774
     RDKit          3D

 36 38  0  0  1  0  0  0  0  0999 V2000
   33.0153   34.7822   37.1489 C   0  0  0  0  0  0  0  0  0  0  0  0
   32.1834   35.2311   36.1166 C   0  0  0  0  0  0  0  0  0  0  0  0
   31.4682   34.3126   35.3367 C   0  0  0  0  0  0  0  0  0  0  0  0
   31.5886   32.9321   35.5890 C   0  0  0  0  0  0  0  0  0  0  0  0
   32.4298   32.4849   36.6223 C   0  0  0  0  0  0  0  0  0  0  0  0
   33.1336   33.4105   37.4032 C   0  0  0  0  0  0  0  0  0  0  0  0
   32.5825   30.7858   36.9788 Cl  0  0  0  0  0  0  0  0  0  0  0  0
   30.8939   31.9285   34.7497 C   0  0  0  0  0  0  0  0  0  0  0  0
   31.1299   31.8887   33.5456 O   0  0  0  0  0  0  0  0  0  0  0  0
   30.0556   31.0868   35.3900 N   0  0  0  0  0  0  0  0  0  0  0  0
   29.3630   29.9688   34.8508 C   0  0  0  0  0  0  0  0  0  0  0  0
   28.9474   29.8036   33.5206 C   0  0  0  0  0  0  0  0  0  0  0  0
   28.3265   28.5970   33.1692 C   0  0  0  0  0  0  0  0  0  0  0  0
   28.1170   27.6324   34.0610 N   0  0  0  0  0  0  0  0  0  0  0  0
   28.4853   27.7785   35.3343 C   0  0  0  0  0  0  0  0  0  0  0  0
   29.1487   28.9313   35.7638 C   0  0  0  0  0  0  0  0  0  0  0  0
   28.2508   26.6803   36.2097 N   0  0  0  0  0  0  0  0  0  0  0  0
   29.0821   26.2680   37.1932 C   0  0  0  0  0  0  0  0  0  0  0  0
   30.1002   26.8630   37.5456 O   0  0  0  0  0  0  0  0  0  0  0  0
   28.6394   25.0726   37.9840 C   0  0  1  0  0  0  0  0  0  0  0  0
   28.8303   25.0651   39.4967 C   0  0  0  0  0  0  0  0  0  0  0  0
   27.4130   25.0734   38.8945 C   0  0  1  0  0  0  0  0  0  0  0  0
   26.5478   26.6587   38.9702 Cl  0  0  0  0  0  0  0  0  0  0  0  0
   30.4245   34.9186   34.0826 Cl  0  0  0  0  0  0  0  0  0  0  0  0
   28.8486   24.1397   37.4837 H   0  0  0  0  0  0  0  0  0  0  0  0
   26.8149   24.1834   38.9629 H   0  0  0  0  0  0  0  0  0  0  0  0
   33.5623   35.4929   37.7507 H   0  0  0  0  0  0  0  0  0  0  0  0
   32.0879   36.2890   35.9221 H   0  0  0  0  0  0  0  0  0  0  0  0
   33.7718   33.0627   38.2018 H   0  0  0  0  0  0  0  0  0  0  0  0
   29.9064   31.2078   36.3672 H   0  0  0  0  0  0  0  0  0  0  0  0
   29.1107   30.5487   32.7615 H   0  0  0  0  0  0  0  0  0  0  0  0
   28.0060   28.4233   32.1503 H   0  0  0  0  0  0  0  0  0  0  0  0
   29.5241   29.0394   36.7677 H   0  0  0  0  0  0  0  0  0  0  0  0
   27.3843   26.2190   36.0458 H   0  0  0  0  0  0  0  0  0  0  0  0
   29.1518   24.1301   39.9259 H   0  0  0  0  0  0  0  0  0  0  0  0
   29.1686   25.9743   39.9643 H   0  0  0  0  0  0  0  0  0  0  0  0
  1  2  2  0
  1  6  1  0
  1 27  1  0
  2  3  1  0
  2 28  1  0
  3  4  2  0
  3 24  1  0
  4  5  1  0
  4  8  1  0
  5  6  2  0
  5  7  1  0
  6 29  1  0
  8  9  2  0
  8 10  1  0
 10 11  1  0
 10 30  1  0
 11 12  2  0
 11 16  1  0
 12 13  1  0
 12 31  1  0
 13 14  2  0
 13 32  1  0
 14 15  1  0
 15 16  2  0
 15 17  1  0
 16 33  1  0
 17 18  1  0
 17 34  1  0
 18 19  2  0
 18 20  1  0
 20 21  1  0
 20 22  1  0
 20 25  1  6
 21 22  1  0
 21 35  1  0
 21 36  1  0
 22 23  1  0
 22 26  1  6
M  END
> <intraLJ>
26.397    

> <intraEL>
-16.505   

> <intraDihe>
35.687    

> <interLJ>
0.000     

> <interEJ>
0.000     

> <gridLJ>
-8.288    

> <gridEL>
0.000     

> <totalE>
37.292    

> <LGFE>
-8.288  

> <LE>
-0.345  

> <SMILES>
O=C(Nc1ccnc(NC(=O)[C@H]2C[C@H]2Cl)c1)c1c(Cl)cccc1Cl

> <atom.dprop.GFE>
0.1470 0.2679 0.0610 0.0132 0.0144 -0.0028 -0.4170 0.0000 -0.4850 -0.6230 -0.2911 -0.2084 -0.1935 -1.0780 -0.0902 -0.2806 -1.8690 0.0000 -0.8080 -0.0839 -0.2814 -0.2075 -0.1030 -1.7690 0.0000 0.0000 0.0000 0.0000 0.0000 0.0000 0.0000 0.0000 0.0000 0.0000 0.0000 0.0000

> <atom.prop.CLASS>
BENC BENC BENC BENC BENC BENC CLBX NCLA FORO FORN BENC BENC GEHC IMIN GEHC BENC FORN NCLA FORO PRPC PRPC PRPC CLEX CLBX NCLA NCLA NCLA NCLA NCLA NCLA NCLA NCLA NCLA NCLA NCLA NCLA

> <cluster_id>
1

> <rmsd_to_cluster_rep>
0.00    

> <ligRMSD>
1.78    

> <ligCOMD>
0.93    

$$$$
tyk2_liang_jmc_28_1062
     RDKit          3D

 39 41  0  0  1  0  0  0  0  0999 V2000
   32.8098   34.7269   37.5484 C   0  0  0  0  0  0  0  0  0  0  0  0
   32.0578   35.1751   36.4561 C   0  0  0  0  0  0  0  0  0  0  0  0
   31.3844   34.2575   35.6389 C   0  0  0  0  0  0  0  0  0  0  0  0
   31.4664   32.8786   35.9142 C   0  0  0  0  0  0  0  0  0  0  0  0
   32.2276   32.4320   37.0081 C   0  0  0  0  0  0  0  0  0  0  0  0
   32.8897   33.3569   37.8254 C   0  0  0  0  0  0  0  0  0  0  0  0
   32.3299   30.7353   37.3935 Cl  0  0  0  0  0  0  0  0  0  0  0  0
   30.8165   31.8749   35.0398 C   0  0  0  0  0  0  0  0  0  0  0  0
   31.1160   31.8340   33.8499 O   0  0  0  0  0  0  0  0  0  0  0  0
   29.9447   31.0343   35.6354 N   0  0  0  0  0  0  0  0  0  0  0  0
   29.2810   29.9158   35.0616 C   0  0  0  0  0  0  0  0  0  0  0  0
   28.9544   29.7403   33.7081 C   0  0  0  0  0  0  0  0  0  0  0  0
   28.3484   28.5349   33.3276 C   0  0  0  0  0  0  0  0  0  0  0  0
   28.0710   27.5815   34.2129 N   0  0  0  0  0  0  0  0  0  0  0  0
   28.3534   27.7373   35.5068 C   0  0  0  0  0  0  0  0  0  0  0  0
   28.9967   28.8893   35.9682 C   0  0  0  0  0  0  0  0  0  0  0  0
   28.0494   26.6498   36.3756 N   0  0  0  0  0  0  0  0  0  0  0  0
   28.8277   26.2128   37.3923 C   0  0  0  0  0  0  0  0  0  0  0  0
   29.8466   26.7821   37.7836 O   0  0  0  0  0  0  0  0  0  0  0  0
   28.3154   25.0274   38.1569 C   0  0  1  0  0  0  0  0  0  0  0  0
   28.5174   24.9664   39.6633 C   0  0  0  0  0  0  0  0  0  0  0  0
   27.1022   25.1311   39.0754 C   0  0  1  0  0  0  0  0  0  0  0  0
   26.4237   26.4729   39.1842 C   0  0  0  0  0  0  0  0  0  0  0  0
   30.4389   34.8632   34.3088 Cl  0  0  0  0  0  0  0  0  0  0  0  0
   28.4344   24.0912   37.6333 H   0  0  0  0  0  0  0  0  0  0  0  0
   26.4684   24.2602   39.1272 H   0  0  0  0  0  0  0  0  0  0  0  0
   33.3246   35.4371   38.1785 H   0  0  0  0  0  0  0  0  0  0  0  0
   31.9919   36.2318   36.2437 H   0  0  0  0  0  0  0  0  0  0  0  0
   33.4660   33.0098   38.6700 H   0  0  0  0  0  0  0  0  0  0  0  0
   29.7442   31.1562   36.6033 H   0  0  0  0  0  0  0  0  0  0  0  0
   29.1748   30.4763   32.9546 H   0  0  0  0  0  0  0  0  0  0  0  0
   28.0957   28.3532   32.2912 H   0  0  0  0  0  0  0  0  0  0  0  0
   29.3050   29.0050   36.9939 H   0  0  0  0  0  0  0  0  0  0  0  0
   27.1780   26.2128   36.1755 H   0  0  0  0  0  0  0  0  0  0  0  0
   28.7446   23.9967   40.0749 H   0  0  0  0  0  0  0  0  0  0  0  0
   28.9376   25.8300   40.1511 H   0  0  0  0  0  0  0  0  0  0  0  0
   25.5310   26.3881   39.8390 H   0  0  0  0  0  0  0  0  0  0  0  0
   27.1101   27.2286   39.6220 H   0  0  0  0  0  0  0  0  0  0  0  0
   26.0981   26.8128   38.1774 H   0  0  0  0  0  0  0  0  0  0  0  0
  1  2  2  0
  1  6  1  0
  1 27  1  0
  2  3  1  0
  2 28  1  0
  3  4  2  0
  3 24  1  0
  4  5  1  0
  4  8  1  0
  5  6  2  0
  5  7  1  0
  6 29  1  0
  8  9  2  0
  8 10  1  0
 10 11  1  0
 10 30  1  0
 11 12  2  0
 11 16  1  0
 12 13  1  0
 12 31  1  0
 13 14  2  0
 13 32  1  0
 14 15  1  0
 15 16  2  0
 15 17  1  0
 16 33  1  0
 17 18  1  0
 17 34  1  0
 18 19  2  0
 18 20  1  0
 20 21  1  0
 20 22  1  0
 20 25  1  6
 21 22  1  0
 21 35  1  0
 21 36  1  0
 22 23  1  0
 22 26  1  6
 23 37  1  0
 23 38  1  0
 23 39  1  0
M  END
> <intraLJ>
25.665    

> <intraEL>
-15.560   

> <intraDihe>
37.848    

> <interLJ>
0.000     

> <interEJ>
0.000     

> <gridLJ>
-8.697    

> <gridEL>
0.000     

> <totalE>
39.255    

> <LGFE>
-8.697  

> <LE>
-0.362  

> <SMILES>
C[C@@H]1C[C@@H]1C(=O)Nc1cc(NC(=O)c2c(Cl)cccc2Cl)ccn1

> <atom.dprop.GFE>
0.0514 0.2679 0.0610 0.0132 -0.0304 -0.0028 -0.6820 0.0000 -0.4850 -0.6230 -0.3086 -0.1393 -0.1935 -1.0780 -0.3453 -0.2806 -1.8690 0.0000 -0.8080 -0.2075 -0.2814 -0.1399 0.1528 -1.7690 0.0000 0.0000 0.0000 0.0000 0.0000 0.0000 0.0000 0.0000 0.0000 0.0000 0.0000 0.0000 0.0000 0.0000 0.0000

> <atom.prop.CLASS>
BENC BENC BENC BENC BENC BENC CLBX NCLA FORO FORN BENC BENC GEHC IMIN GEHC BENC FORN NCLA FORO PRPC PRPC PRPC PRPC CLBX NCLA NCLA NCLA NCLA NCLA NCLA NCLA NCLA NCLA NCLA NCLA NCLA NCLA NCLA NCLA

> <cluster_id>
1

> <rmsd_to_cluster_rep>
0.00    

> <ligRMSD>
1.80    

> <ligCOMD>
1.00    

$$$$
tyk2_liang_jmc_29_1126
     RDKit          3D

 40 42  0  0  1  0  0  0  0  0999 V2000
   33.2035   34.5229   37.1323 C   0  0  0  0  0  0  0  0  0  0  0  0
   32.3382   35.0128   36.1471 C   0  0  0  0  0  0  0  0  0  0  0  0
   31.4758   34.1413   35.4688 C   0  0  0  0  0  0  0  0  0  0  0  0
   31.4808   32.7668   35.7759 C   0  0  0  0  0  0  0  0  0  0  0  0
   32.3555   32.2778   36.7613 C   0  0  0  0  0  0  0  0  0  0  0  0
   33.2076   33.1574   37.4411 C   0  0  0  0  0  0  0  0  0  0  0  0
   32.3701   30.5873   37.1844 Cl  0  0  0  0  0  0  0  0  0  0  0  0
   30.6252   31.8063   35.0412 C   0  0  0  0  0  0  0  0  0  0  0  0
   30.6753   31.7767   33.8149 O   0  0  0  0  0  0  0  0  0  0  0  0
   29.8574   30.9890   35.7922 N   0  0  0  0  0  0  0  0  0  0  0  0
   29.0436   29.9097   35.3523 C   0  0  0  0  0  0  0  0  0  0  0  0
   28.4453   29.7732   34.0902 C   0  0  0  0  0  0  0  0  0  0  0  0
   27.7240   28.6006   33.8264 C   0  0  0  0  0  0  0  0  0  0  0  0
   27.5885   27.6425   34.7393 N   0  0  0  0  0  0  0  0  0  0  0  0
   28.1310   27.7623   35.9516 C   0  0  0  0  0  0  0  0  0  0  0  0
   28.9027   28.8784   36.2867 C   0  0  0  0  0  0  0  0  0  0  0  0
   27.9617   26.6715   36.8519 N   0  0  0  0  0  0  0  0  0  0  0  0
   28.8931   26.2152   37.7198 C   0  0  0  0  0  0  0  0  0  0  0  0
   29.9698   26.7685   37.9419 O   0  0  0  0  0  0  0  0  0  0  0  0
   28.4992   25.0297   38.5508 C   0  0  1  0  0  0  0  0  0  0  0  0
   29.0282   24.9045   39.9715 C   0  0  0  0  0  0  0  0  0  0  0  0
   27.5300   25.1640   39.7207 C   0  0  1  0  0  0  0  0  0  0  0  0
   26.9787   26.5395   40.0058 C   0  0  0  0  0  0  0  0  0  0  0  0
   30.3975   34.7998   34.2719 Cl  0  0  0  0  0  0  0  0  0  0  0  0
   28.4437   24.1081   37.9919 H   0  0  0  0  0  0  0  0  0  0  0  0
   26.8747   24.3209   39.8799 H   0  0  0  0  0  0  0  0  0  0  0  0
   33.8644   35.1978   37.6559 H   0  0  0  0  0  0  0  0  0  0  0  0
   32.3310   36.0665   35.9108 H   0  0  0  0  0  0  0  0  0  0  0  0
   33.8716   32.7784   38.2036 H   0  0  0  0  0  0  0  0  0  0  0  0
   29.8628   31.0995   36.7820 H   0  0  0  0  0  0  0  0  0  0  0  0
   28.5420   30.5137   33.3154 H   0  0  0  0  0  0  0  0  0  0  0  0
   27.2614   28.4489   32.8599 H   0  0  0  0  0  0  0  0  0  0  0  0
   29.4148   28.9619   37.2307 H   0  0  0  0  0  0  0  0  0  0  0  0
   27.0636   26.2462   36.7967 H   0  0  0  0  0  0  0  0  0  0  0  0
   29.2847   23.9099   40.2978 H   0  0  0  0  0  0  0  0  0  0  0  0
   29.5972   25.7264   40.3728 H   0  0  0  0  0  0  0  0  0  0  0  0
   26.1574   26.5158   41.1593 O   0  0  0  0  0  0  0  0  0  0  0  0
   26.7402   26.3093   41.8941 H   0  0  0  0  0  0  0  0  0  0  0  0
   27.8007   27.2645   40.1851 H   0  0  0  0  0  0  0  0  0  0  0  0
   26.3690   26.8782   39.1400 H   0  0  0  0  0  0  0  0  0  0  0  0
  1  2  2  0
  1  6  1  0
  1 27  1  0
  2  3  1  0
  2 28  1  0
  3  4  2  0
  3 24  1  0
  4  5  1  0
  4  8  1  0
  5  6  2  0
  5  7  1  0
  6 29  1  0
  8  9  2  0
  8 10  1  0
 10 11  1  0
 10 30  1  0
 11 12  2  0
 11 16  1  0
 12 13  1  0
 12 31  1  0
 13 14  2  0
 13 32  1  0
 14 15  1  0
 15 16  2  0
 15 17  1  0
 16 33  1  0
 17 18  1  0
 17 34  1  0
 18 19  2  0
 18 20  1  0
 20 21  1  0
 20 22  1  0
 20 25  1  6
 21 22  1  0
 21 35  1  0
 21 36  1  0
 22 23  1  0
 22 26  1  6
 23 37  1  0
 23 39  1  0
 23 40  1  0
 37 38  1  0
M  END
> <intraLJ>
26.679    

> <intraEL>
-14.318   

> <intraDihe>
45.961    

> <interLJ>
0.000     

> <interEJ>
0.000     

> <gridLJ>
-8.786    

> <gridEL>
0.000     

> <totalE>
49.536    

> <LGFE>
-8.786  

> <LE>
-0.351  

> <SMILES>
O=C(Nc1ccnc(NC(=O)[C@H]2C[C@H]2CO)c1)c1c(Cl)cccc1Cl

> <atom.dprop.GFE>
0.0514 0.2679 0.0610 -0.0381 0.0301 -0.0028 -0.6820 0.0000 -0.4850 -0.6230 -0.3086 -0.2911 -0.1935 -1.0780 -0.3453 -0.2430 -1.8690 0.0000 -0.8080 -0.0839 -0.2814 -0.2664 0.0073 -1.7690 0.0000 0.0000 0.0000 0.0000 0.0000 0.0000 0.0000 0.0000 0.0000 0.0000 0.0000 0.0000 0.1640 0.0000 0.0000 0.0000

> <atom.prop.CLASS>
BENC BENC BENC BENC BENC BENC CLBX NCLA FORO FORN BENC BENC GEHC IMIN GEHC BENC FORN NCLA FORO PRPC PRPC PRPC PRPC CLBX NCLA NCLA NCLA NCLA NCLA NCLA NCLA NCLA NCLA NCLA NCLA NCLA MEOO NCLA NCLA NCLA

> <cluster_id>
1

> <rmsd_to_cluster_rep>
0.00    

> <ligRMSD>
1.68    

> <ligCOMD>
0.84    

$$$$
tyk2_liang_jmc_30_1046
     RDKit          3D

 37 39  0  0  1  0  0  0  0  0999 V2000
   33.3283   34.3399   37.0447 C   0  0  0  0  0  0  0  0  0  0  0  0
   32.4227   34.8992   36.1361 C   0  0  0  0  0  0  0  0  0  0  0  0
   31.4966   34.0882   35.4677 C   0  0  0  0  0  0  0  0  0  0  0  0
   31.4810   32.6976   35.7113 C   0  0  0  0  0  0  0  0  0  0  0  0
   32.3939   32.1372   36.6276 C   0  0  0  0  0  0  0  0  0  0  0  0
   33.3082   32.9629   37.2931 C   0  0  0  0  0  0  0  0  0  0  0  0
   32.3813   30.4332   37.0061 Cl  0  0  0  0  0  0  0  0  0  0  0  0
   30.5674   31.8013   34.9661 C   0  0  0  0  0  0  0  0  0  0  0  0
   30.5800   31.8088   33.7376 O   0  0  0  0  0  0  0  0  0  0  0  0
   29.7874   30.9985   35.7214 N   0  0  0  0  0  0  0  0  0  0  0  0
   28.9354   29.9383   35.3075 C   0  0  0  0  0  0  0  0  0  0  0  0
   28.2909   29.8202   34.0672 C   0  0  0  0  0  0  0  0  0  0  0  0
   27.5046   28.6808   33.8411 C   0  0  0  0  0  0  0  0  0  0  0  0
   27.3612   27.7339   34.7646 N   0  0  0  0  0  0  0  0  0  0  0  0
   27.9489   27.8366   35.9570 C   0  0  0  0  0  0  0  0  0  0  0  0
   28.7809   28.9189   36.2573 C   0  0  0  0  0  0  0  0  0  0  0  0
   27.7346   26.7648   36.8725 N   0  0  0  0  0  0  0  0  0  0  0  0
   28.6383   26.2862   37.7588 C   0  0  0  0  0  0  0  0  0  0  0  0
   29.7476   26.7772   37.9606 O   0  0  0  0  0  0  0  0  0  0  0  0
   28.1840   25.1788   38.6662 C   0  0  1  0  0  0  0  0  0  0  0  0
   28.5905   25.2109   40.1397 C   0  0  0  0  0  0  0  0  0  0  0  0
   27.1165   25.4187   39.7362 C   0  0  1  0  0  0  0  0  0  0  0  0
   26.4869   26.7610   39.8585 C   0  0  0  0  0  0  0  0  0  0  0  0
   30.3865   34.8469   34.3557 Cl  0  0  0  0  0  0  0  0  0  0  0  0
   28.1906   24.2028   38.2068 H   0  0  0  0  0  0  0  0  0  0  0  0
   26.4500   24.5974   39.9415 H   0  0  0  0  0  0  0  0  0  0  0  0
   34.0385   34.9713   37.5581 H   0  0  0  0  0  0  0  0  0  0  0  0
   32.4367   35.9626   35.9482 H   0  0  0  0  0  0  0  0  0  0  0  0
   34.0014   32.5329   38.0009 H   0  0  0  0  0  0  0  0  0  0  0  0
   29.8290   31.0948   36.7117 H   0  0  0  0  0  0  0  0  0  0  0  0
   28.3903   30.5577   33.2894 H   0  0  0  0  0  0  0  0  0  0  0  0
   26.9986   28.5446   32.8943 H   0  0  0  0  0  0  0  0  0  0  0  0
   29.3142   28.9895   37.1907 H   0  0  0  0  0  0  0  0  0  0  0  0
   26.8091   26.4001   36.8420 H   0  0  0  0  0  0  0  0  0  0  0  0
   28.8306   24.2573   40.5809 H   0  0  0  0  0  0  0  0  0  0  0  0
   29.1194   26.0772   40.5001 H   0  0  0  0  0  0  0  0  0  0  0  0
   25.9791   27.8261   39.9355 N   0  0  0  0  0  0  0  0  0  0  0  0
  1  2  2  0
  1  6  1  0
  1 27  1  0
  2  3  1  0
  2 28  1  0
  3  4  2  0
  3 24  1  0
  4  5  1  0
  4  8  1  0
  5  6  2  0
  5  7  1  0
  6 29  1  0
  8  9  2  0
  8 10  1  0
 10 11  1  0
 10 30  1  0
 11 12  2  0
 11 16  1  0
 12 13  1  0
 12 31  1  0
 13 14  2  0
 13 32  1  0
 14 15  1  0
 15 16  2  0
 15 17  1  0
 16 33  1  0
 17 18  1  0
 17 34  1  0
 18 19  2  0
 18 20  1  0
 20 21  1  0
 20 22  1  0
 20 25  1  6
 21 22  1  0
 21 35  1  0
 21 36  1  0
 22 23  1  0
 22 26  1  1
 23 37  3  0
M  END
> <intraLJ>
25.270    

> <intraEL>
-14.411   

> <intraDihe>
39.513    

> <interLJ>
0.000     

> <interEJ>
0.000     

> <gridLJ>
-9.291    

> <gridEL>
0.000     

> <totalE>
41.081    

> <LGFE>
-9.291  

> <LE>
-0.372  

> <SMILES>
N#C[C@@H]1C[C@@H]1C(=O)Nc1cc(NC(=O)c2c(Cl)cccc2Cl)ccn1

> <atom.dprop.GFE>
0.0514 0.2460 0.0610 -0.0381 0.0144 -0.0028 -0.6820 0.0000 -0.4850 -0.6230 -0.3086 -0.2248 -0.1935 -1.7190 -0.1675 -0.2430 -1.8690 0.0000 -0.8080 -0.2075 -0.1828 -0.1399 0.0000 -1.7690 0.0000 0.0000 0.0000 0.0000 0.0000 0.0000 0.0000 0.0000 0.0000 0.0000 0.0000 0.0000 0.0000

> <atom.prop.CLASS>
BENC BENC BENC BENC BENC BENC CLBX NCLA FORO FORN BENC BENC GEHC IMIN GEHC BENC FORN NCLA FORO PRPC PRPC PRPC NCLA CLBX NCLA NCLA NCLA NCLA NCLA NCLA NCLA NCLA NCLA NCLA NCLA NCLA NCLA

> <cluster_id>
1

> <rmsd_to_cluster_rep>
0.00    

> <ligRMSD>
1.75    

> <ligCOMD>
0.99    

$$$$
tyk2_liang_jmc_31_1192
     RDKit          3D

 42 44  0  0  1  0  0  0  0  0999 V2000
   33.6053   34.3416   35.3788 C   0  0  0  0  0  0  0  0  0  0  0  0
   32.9465   33.7890   36.4833 C   0  0  0  0  0  0  0  0  0  0  0  0
   31.7920   33.0160   36.3025 C   0  0  0  0  0  0  0  0  0  0  0  0
   31.2894   32.7963   35.0050 C   0  0  0  0  0  0  0  0  0  0  0  0
   31.9500   33.3582   33.8987 C   0  0  0  0  0  0  0  0  0  0  0  0
   33.1089   34.1216   34.0883 C   0  0  0  0  0  0  0  0  0  0  0  0
   31.3713   33.0853   32.2774 Cl  0  0  0  0  0  0  0  0  0  0  0  0
   30.0394   32.0345   34.7785 C   0  0  0  0  0  0  0  0  0  0  0  0
   29.1244   32.5582   34.1494 O   0  0  0  0  0  0  0  0  0  0  0  0
   30.0080   30.7753   35.2632 N   0  0  0  0  0  0  0  0  0  0  0  0
   28.9932   29.7963   35.0834 C   0  0  0  0  0  0  0  0  0  0  0  0
   28.0531   29.7464   34.0427 C   0  0  0  0  0  0  0  0  0  0  0  0
   27.1642   28.6629   34.0091 C   0  0  0  0  0  0  0  0  0  0  0  0
   27.1883   27.7093   34.9361 N   0  0  0  0  0  0  0  0  0  0  0  0
   28.0593   27.7497   35.9448 C   0  0  0  0  0  0  0  0  0  0  0  0
   29.0100   28.7705   36.0342 C   0  0  0  0  0  0  0  0  0  0  0  0
   28.0316   26.6685   36.8711 N   0  0  0  0  0  0  0  0  0  0  0  0
   28.4434   26.7246   38.1571 C   0  0  0  0  0  0  0  0  0  0  0  0
   28.7702   27.7569   38.7420 O   0  0  0  0  0  0  0  0  0  0  0  0
   28.3522   25.4455   38.9322 C   0  0  1  0  0  0  0  0  0  0  0  0
   29.2206   25.2577   40.1665 C   0  0  0  0  0  0  0  0  0  0  0  0
   27.6917   25.3964   40.3025 C   0  0  1  0  0  0  0  0  0  0  0  0
   27.1307   26.6835   40.8604 C   0  0  0  0  0  0  0  0  0  0  0  0
   31.0226   32.3265   37.7036 Cl  0  0  0  0  0  0  0  0  0  0  0  0
   28.2262   24.5699   38.3138 H   0  0  0  0  0  0  0  0  0  0  0  0
   27.1567   24.4890   40.5361 H   0  0  0  0  0  0  0  0  0  0  0  0
   34.4971   34.9339   35.5215 H   0  0  0  0  0  0  0  0  0  0  0  0
   33.3306   33.9547   37.4789 H   0  0  0  0  0  0  0  0  0  0  0  0
   33.6184   34.5438   33.2349 H   0  0  0  0  0  0  0  0  0  0  0  0
   30.7890   30.4410   35.7829 H   0  0  0  0  0  0  0  0  0  0  0  0
   28.0073   30.4858   33.2621 H   0  0  0  0  0  0  0  0  0  0  0  0
   26.4348   28.5785   33.2141 H   0  0  0  0  0  0  0  0  0  0  0  0
   29.7720   28.7826   36.7954 H   0  0  0  0  0  0  0  0  0  0  0  0
   27.6705   25.8245   36.4868 H   0  0  0  0  0  0  0  0  0  0  0  0
   29.6160   24.2682   40.3275 H   0  0  0  0  0  0  0  0  0  0  0  0
   29.8086   26.0942   40.5053 H   0  0  0  0  0  0  0  0  0  0  0  0
   26.3564   26.4654   42.0257 O   0  0  0  0  0  0  0  0  0  0  0  0
   27.2673   25.9573   43.0393 N   0  0  0  0  0  0  0  0  0  0  0  0
   26.6593   25.8592   43.8523 H   0  0  0  0  0  0  0  0  0  0  0  0
   27.9080   26.7394   43.1746 H   0  0  0  0  0  0  0  0  0  0  0  0
   27.9472   27.4007   41.0987 H   0  0  0  0  0  0  0  0  0  0  0  0
   26.4730   27.1456   40.0929 H   0  0  0  0  0  0  0  0  0  0  0  0
  1  2  2  0
  1  6  1  0
  1 27  1  0
  2  3  1  0
  2 28  1  0
  3  4  2  0
  3 24  1  0
  4  5  1  0
  4  8  1  0
  5  6  2  0
  5  7  1  0
  6 29  1  0
  8  9  2  0
  8 10  1  0
 10 11  1  0
 10 30  1  0
 11 12  2  0
 11 16  1  0
 12 13  1  0
 12 31  1  0
 13 14  2  0
 13 32  1  0
 14 15  1  0
 15 16  2  0
 15 17  1  0
 16 33  1  0
 17 18  1  0
 17 34  1  0
 18 19  2  0
 18 20  1  0
 20 21  1  0
 20 22  1  0
 20 25  1  6
 21 22  1  0
 21 35  1  0
 21 36  1  0
 22 23  1  0
 22 26  1  6
 23 37  1  0
 23 41  1  0
 23 42  1  0
 37 38  1  0
 38 39  1  0
 38 40  1  0
M  END
> <intraLJ>
28.551    

> <intraEL>
-14.968   

> <intraDihe>
50.500    

> <interLJ>
0.000     

> <interEJ>
0.000     

> <gridLJ>
-8.550    

> <gridEL>
0.000     

> <totalE>
55.533    

> <LGFE>
-8.550  

> <LE>
-0.329  

> <SMILES>
NOC[C@@H]1C[C@@H]1C(=O)Nc1cc(NC(=O)c2c(Cl)cccc2Cl)ccn1

> <atom.dprop.GFE>
0.2082 0.0579 0.0065 0.0222 0.0144 0.2228 -1.7850 0.0000 0.5460 -0.6230 -0.3086 -0.2919 -0.1122 -1.7190 -0.3453 -0.2430 -1.8690 0.0000 -0.5580 -0.2075 -0.1828 -0.1792 0.0073 -0.4810 0.0000 0.0000 0.0000 0.0000 0.0000 0.0000 0.0000 0.0000 0.0000 0.0000 0.0000 0.0000 -0.6980 -0.0320 0.0000 0.0000 0.0000 0.0000

> <atom.prop.CLASS>
BENC BENC BENC BENC BENC BENC CLBX NCLA FORO FORN BENC BENC GEHC IMIN GEHC BENC FORN NCLA FORO PRPC PRPC PRPC PRPC CLBX NCLA NCLA NCLA NCLA NCLA NCLA NCLA NCLA NCLA NCLA NCLA NCLA DMEO FORN NCLA NCLA NCLA NCLA

> <cluster_id>
1

> <rmsd_to_cluster_rep>
0.00    

> <ligRMSD>
1.43    

> <ligCOMD>
0.91    

$$$$
tyk2_liang_jmc_32_271
     RDKit          3D

 38 40  0  0  1  0  0  0  0  0999 V2000
   32.9827   34.3776   37.0085 C   0  0  0  0  0  0  0  0  0  0  0  0
   32.2218   33.6690   37.9454 C   0  0  0  0  0  0  0  0  0  0  0  0
   31.1647   32.8504   37.5264 C   0  0  0  0  0  0  0  0  0  0  0  0
   30.8647   32.7443   36.1516 C   0  0  0  0  0  0  0  0  0  0  0  0
   31.6303   33.4613   35.2111 C   0  0  0  0  0  0  0  0  0  0  0  0
   32.6896   34.2684   35.6443 C   0  0  0  0  0  0  0  0  0  0  0  0
   31.3243   33.3289   33.4981 Cl  0  0  0  0  0  0  0  0  0  0  0  0
   29.7096   31.9465   35.6787 C   0  0  0  0  0  0  0  0  0  0  0  0
   28.8321   32.4931   35.0149 O   0  0  0  0  0  0  0  0  0  0  0  0
   29.7267   30.6336   35.9984 N   0  0  0  0  0  0  0  0  0  0  0  0
   28.8463   29.6024   35.5686 C   0  0  0  0  0  0  0  0  0  0  0  0
   27.8934   29.6975   34.5429 C   0  0  0  0  0  0  0  0  0  0  0  0
   27.1342   28.5575   34.2433 C   0  0  0  0  0  0  0  0  0  0  0  0
   27.2968   27.4151   34.9055 N   0  0  0  0  0  0  0  0  0  0  0  0
   28.1716   27.3098   35.9072 C   0  0  0  0  0  0  0  0  0  0  0  0
   29.0039   28.3820   36.2439 C   0  0  0  0  0  0  0  0  0  0  0  0
   28.2633   26.0410   36.5571 N   0  0  0  0  0  0  0  0  0  0  0  0
   28.7269   25.8088   37.8120 C   0  0  0  0  0  0  0  0  0  0  0  0
   29.0077   26.6906   38.6225 O   0  0  0  0  0  0  0  0  0  0  0  0
   28.8719   24.3727   38.2496 C   0  0  1  0  0  0  0  0  0  0  0  0
   29.9769   23.9543   39.2056 C   0  0  0  0  0  0  0  0  0  0  0  0
   28.4945   23.7776   39.6203 C   0  0  1  0  0  0  0  0  0  0  0  0
   30.2603   31.9803   38.7378 Cl  0  0  0  0  0  0  0  0  0  0  0  0
   28.7157   23.7124   37.4100 H   0  0  0  0  0  0  0  0  0  0  0  0
   28.1467   22.7577   39.5985 H   0  0  0  0  0  0  0  0  0  0  0  0
   33.7982   35.0047   37.3376 H   0  0  0  0  0  0  0  0  0  0  0  0
   32.4505   33.7513   38.9976 H   0  0  0  0  0  0  0  0  0  0  0  0
   33.2809   34.8100   34.9210 H   0  0  0  0  0  0  0  0  0  0  0  0
   30.4680   30.2943   36.5703 H   0  0  0  0  0  0  0  0  0  0  0  0
   27.7407   30.5982   33.9736 H   0  0  0  0  0  0  0  0  0  0  0  0
   26.3997   28.5821   33.4490 H   0  0  0  0  0  0  0  0  0  0  0  0
   29.7611   28.2961   37.0057 H   0  0  0  0  0  0  0  0  0  0  0  0
   27.9549   25.2848   35.9887 H   0  0  0  0  0  0  0  0  0  0  0  0
   30.5015   23.0486   38.9487 H   0  0  0  0  0  0  0  0  0  0  0  0
   30.5315   24.7322   39.7028 H   0  0  0  0  0  0  0  0  0  0  0  0
   27.8805   24.6952   40.6758 C   0  0  0  0  0  0  0  0  0  0  0  0
   28.6556   25.2652   41.4878 O   0  0  0  0  0  0  0  0  0  0  0  0
   26.6214   24.7444   40.6522 O   0  0  0  0  0  0  0  0  0  0  0  0
  1  2  2  0
  1  6  1  0
  1 26  1  0
  2  3  1  0
  2 27  1  0
  3  4  2  0
  3 23  1  0
  4  5  1  0
  4  8  1  0
  5  6  2  0
  5  7  1  0
  6 28  1  0
  8  9  2  0
  8 10  1  0
 10 11  1  0
 10 29  1  0
 11 12  2  0
 11 16  1  0
 12 13  1  0
 12 30  1  0
 13 14  2  0
 13 31  1  0
 14 15  1  0
 15 16  2  0
 15 17  1  0
 16 32  1  0
 17 18  1  0
 17 33  1  0
 18 19  2  0
 18 20  1  0
 20 21  1  0
 20 22  1  0
 20 24  1  6
 21 22  1  0
 21 34  1  0
 21 35  1  0
 22 25  1  6
 22 36  1  0
 36 37  2  0
 36 38  1  0
M  CHG  1  38  -1
M  END
> <intraLJ>
25.354    

> <intraEL>
-10.931   

> <intraDihe>
43.893    

> <interLJ>
0.000     

> <interEJ>
0.000     

> <gridLJ>
-10.590   

> <gridEL>
0.000     

> <totalE>
47.725    

> <LGFE>
-10.590 

> <LE>
-0.407  

> <SMILES>
O=C(Nc1ccnc(NC(=O)[C@H]2C[C@H]2C(=O)[O-])c1)c1c(Cl)cccc1Cl

> <atom.dprop.GFE>
0.0514 -0.0631 -0.0833 -0.0548 0.0132 0.0620 -1.5660 0.0000 0.3410 -0.5880 -0.2806 -0.2919 -0.1122 -1.7190 -0.3453 -0.2735 -1.8690 0.0000 -0.9530 -0.0176 0.1309 -0.2308 -0.4980 0.0000 0.0000 0.0000 0.0000 0.0000 0.0000 0.0000 0.0000 0.0000 0.0000 0.0000 0.0000 -2.2420 0.0000 0.0000

> <atom.prop.CLASS>
BENC BENC BENC BENC BENC BENC CLBX NCLA FORO FORN BENC BENC GEHC IMIN GEHC BENC FORN NCLA FORO PRPC PRPC PRPC CLBX NCLA NCLA NCLA NCLA NCLA NCLA NCLA NCLA NCLA NCLA NCLA NCLA ACEC NCLA NCLA

> <cluster_id>
1

> <rmsd_to_cluster_rep>
0.00    

> <ligRMSD>
1.34    

> <ligCOMD>
1.00    

$$$$
tyk2_liang_jmc_33_278
     RDKit          3D

 41 44  0  0  1  0  0  0  0  0999 V2000
   32.7393   34.6196   37.4112 C   0  0  0  0  0  0  0  0  0  0  0  0
   31.9031   33.9312   38.2980 C   0  0  0  0  0  0  0  0  0  0  0  0
   30.8907   33.0941   37.8105 C   0  0  0  0  0  0  0  0  0  0  0  0
   30.7114   32.9485   36.4196 C   0  0  0  0  0  0  0  0  0  0  0  0
   31.5496   33.6466   35.5305 C   0  0  0  0  0  0  0  0  0  0  0  0
   32.5646   34.4724   36.0300 C   0  0  0  0  0  0  0  0  0  0  0  0
   31.3807   33.4678   33.8037 Cl  0  0  0  0  0  0  0  0  0  0  0  0
   29.6099   32.1264   35.8678 C   0  0  0  0  0  0  0  0  0  0  0  0
   28.7728   32.6535   35.1401 O   0  0  0  0  0  0  0  0  0  0  0  0
   29.6270   30.8151   36.1891 N   0  0  0  0  0  0  0  0  0  0  0  0
   28.7860   29.7780   35.7008 C   0  0  0  0  0  0  0  0  0  0  0  0
   27.8432   29.8852   34.6664 C   0  0  0  0  0  0  0  0  0  0  0  0
   27.1349   28.7320   34.2999 C   0  0  0  0  0  0  0  0  0  0  0  0
   27.3336   27.5660   34.9091 N   0  0  0  0  0  0  0  0  0  0  0  0
   28.2053   27.4486   35.9120 C   0  0  0  0  0  0  0  0  0  0  0  0
   28.9841   28.5352   36.3176 C   0  0  0  0  0  0  0  0  0  0  0  0
   28.3537   26.1553   36.4945 N   0  0  0  0  0  0  0  0  0  0  0  0
   28.8598   25.8806   37.7225 C   0  0  0  0  0  0  0  0  0  0  0  0
   29.1639   26.7259   38.5629 O   0  0  0  0  0  0  0  0  0  0  0  0
   28.9395   24.4260   38.0942 C   0  0  1  0  0  0  0  0  0  0  0  0
   29.8814   24.0529   39.2449 C   0  0  0  0  0  0  0  0  0  0  0  0
   28.3677   23.8141   39.3800 C   0  0  1  0  0  0  0  0  0  0  0  0
   29.8906   32.2430   38.9567 Cl  0  0  0  0  0  0  0  0  0  0  0  0
   28.9816   23.7715   37.2380 H   0  0  0  0  0  0  0  0  0  0  0  0
   28.0872   22.7749   39.2824 H   0  0  0  0  0  0  0  0  0  0  0  0
   33.5206   35.2607   37.7920 H   0  0  0  0  0  0  0  0  0  0  0  0
   32.0397   34.0424   39.3635 H   0  0  0  0  0  0  0  0  0  0  0  0
   33.2124   34.9994   35.3453 H   0  0  0  0  0  0  0  0  0  0  0  0
   30.3319   30.4851   36.8104 H   0  0  0  0  0  0  0  0  0  0  0  0
   27.6627   30.8041   34.1360 H   0  0  0  0  0  0  0  0  0  0  0  0
   26.4100   28.7671   33.4972 H   0  0  0  0  0  0  0  0  0  0  0  0
   29.7393   28.4428   37.0805 H   0  0  0  0  0  0  0  0  0  0  0  0
   28.0225   25.4224   35.9083 H   0  0  0  0  0  0  0  0  0  0  0  0
   30.4831   23.1726   39.0877 H   0  0  0  0  0  0  0  0  0  0  0  0
   30.2955   24.8417   39.8494 H   0  0  0  0  0  0  0  0  0  0  0  0
   26.5473   25.7317   41.6117 N   0  0  0  0  0  0  0  0  0  0  0  0
   26.3335   26.5620   42.1448 H   0  0  0  0  0  0  0  0  0  0  0  0
   27.5380   25.7117   40.7094 N   0  0  0  0  0  0  0  0  0  0  0  0
   27.4168   24.4575   40.2984 C   0  0  0  0  0  0  0  0  0  0  0  0
   26.4372   23.7982   40.9334 N   0  0  0  0  0  0  0  0  0  0  0  0
   25.8563   24.5959   41.7846 N   0  0  0  0  0  0  0  0  0  0  0  0
  1  2  2  0
  1  6  1  0
  1 26  1  0
  2  3  1  0
  2 27  1  0
  3  4  2  0
  3 23  1  0
  4  5  1  0
  4  8  1  0
  5  6  2  0
  5  7  1  0
  6 28  1  0
  8  9  2  0
  8 10  1  0
 10 11  1  0
 10 29  1  0
 11 12  2  0
 11 16  1  0
 12 13  1  0
 12 30  1  0
 13 14  2  0
 13 31  1  0
 14 15  1  0
 15 16  2  0
 15 17  1  0
 16 32  1  0
 17 18  1  0
 17 33  1  0
 18 19  2  0
 18 20  1  0
 20 21  1  0
 20 22  1  0
 20 24  1  6
 21 22  1  0
 21 34  1  0
 21 35  1  0
 22 25  1  6
 22 39  1  0
 36 37  1  0
 36 38  1  0
 36 41  1  0
 38 39  2  0
 39 40  1  0
 40 41  2  0
M  END
> <intraLJ>
27.139    

> <intraEL>
-16.307   

> <intraDihe>
54.868    

> <interLJ>
0.000     

> <interEJ>
0.000     

> <gridLJ>
-10.174   

> <gridEL>
0.000     

> <totalE>
55.527    

> <LGFE>
-10.174 

> <LE>
-0.363  

> <SMILES>
O=C(Nc1ccnc(NC(=O)[C@H]2C[C@H]2c2nn[nH]n2)c1)c1c(Cl)cccc1Cl

> <atom.dprop.GFE>
0.0514 0.0394 -0.0833 -0.0384 0.0132 0.0579 -1.5660 0.0000 0.3410 -0.5950 -0.3086 -0.2248 -0.1122 -1.7190 -0.3453 -0.2735 -1.8690 0.0000 -0.9530 -0.0176 0.1309 -0.2541 -0.4980 0.0000 0.0000 0.0000 0.0000 0.0000 0.0000 0.0000 0.0000 0.0000 0.0000 0.0000 0.0000 -0.0840 0.0000 -1.2180 -0.1195 -0.7450 0.2170

> <atom.prop.CLASS>
BENC BENC BENC BENC BENC BENC CLBX NCLA FORO FORN BENC BENC GEHC IMIN GEHC BENC FORN NCLA FORO PRPC PRPC PRPC CLBX NCLA NCLA NCLA NCLA NCLA NCLA NCLA NCLA NCLA NCLA NCLA NCLA IMIH NCLA IMIN GEHC IMIN IMIN

> <cluster_id>
1

> <rmsd_to_cluster_rep>
0.00    

> <ligRMSD>
1.40    

> <ligCOMD>
0.95    

$$$$
tyk2_liang_jmc_34_345
     RDKit          3D

 42 45  0  0  1  0  0  0  0  0999 V2000
   32.6502   34.7542   36.1878 C   0  0  0  0  0  0  0  0  0  0  0  0
   31.7614   34.1882   37.1093 C   0  0  0  0  0  0  0  0  0  0  0  0
   30.7388   33.3349   36.6740 C   0  0  0  0  0  0  0  0  0  0  0  0
   30.6028   33.0491   35.2999 C   0  0  0  0  0  0  0  0  0  0  0  0
   31.4942   33.6244   34.3750 C   0  0  0  0  0  0  0  0  0  0  0  0
   32.5184   34.4677   34.8239 C   0  0  0  0  0  0  0  0  0  0  0  0
   31.3803   33.2696   32.6709 Cl  0  0  0  0  0  0  0  0  0  0  0  0
   29.4933   32.2075   34.7957 C   0  0  0  0  0  0  0  0  0  0  0  0
   28.7132   32.6725   33.9690 O   0  0  0  0  0  0  0  0  0  0  0  0
   29.4401   30.9455   35.2726 N   0  0  0  0  0  0  0  0  0  0  0  0
   28.5802   29.8873   34.8701 C   0  0  0  0  0  0  0  0  0  0  0  0
   27.8404   29.8193   33.6793 C   0  0  0  0  0  0  0  0  0  0  0  0
   27.0759   28.6674   33.4448 C   0  0  0  0  0  0  0  0  0  0  0  0
   27.0370   27.6638   34.3175 N   0  0  0  0  0  0  0  0  0  0  0  0
   27.7106   27.7206   35.4674 C   0  0  0  0  0  0  0  0  0  0  0  0
   28.5307   28.8114   35.7667 C   0  0  0  0  0  0  0  0  0  0  0  0
   27.6127   26.5925   36.3340 N   0  0  0  0  0  0  0  0  0  0  0  0
   28.5595   26.1676   37.2078 C   0  0  0  0  0  0  0  0  0  0  0  0
   29.6003   26.7693   37.4667 O   0  0  0  0  0  0  0  0  0  0  0  0
   28.2435   24.9181   37.9765 C   0  0  1  0  0  0  0  0  0  0  0  0
   29.3818   23.9615   38.3278 C   0  0  0  0  0  0  0  0  0  0  0  0
   28.5941   24.6701   39.4486 C   0  0  1  0  0  0  0  0  0  0  0  0
   29.6717   32.6402   37.8646 Cl  0  0  0  0  0  0  0  0  0  0  0  0
   27.3379   24.4458   37.6282 H   0  0  0  0  0  0  0  0  0  0  0  0
   27.9021   24.0243   39.9689 H   0  0  0  0  0  0  0  0  0  0  0  0
   33.4389   35.4085   36.5290 H   0  0  0  0  0  0  0  0  0  0  0  0
   31.8649   34.4071   38.1618 H   0  0  0  0  0  0  0  0  0  0  0  0
   33.2068   34.9001   34.1130 H   0  0  0  0  0  0  0  0  0  0  0  0
   30.1012   30.6686   35.9639 H   0  0  0  0  0  0  0  0  0  0  0  0
   27.8558   30.6004   32.9391 H   0  0  0  0  0  0  0  0  0  0  0  0
   26.5028   28.5676   32.5323 H   0  0  0  0  0  0  0  0  0  0  0  0
   29.1333   28.8444   36.6592 H   0  0  0  0  0  0  0  0  0  0  0  0
   26.7426   26.1154   36.2573 H   0  0  0  0  0  0  0  0  0  0  0  0
   29.1684   22.9133   38.1954 H   0  0  0  0  0  0  0  0  0  0  0  0
   30.3925   24.2936   38.1624 H   0  0  0  0  0  0  0  0  0  0  0  0
   30.3120   26.6564   41.8528 C   0  0  0  0  0  0  0  0  0  0  0  0
   31.1434   26.9185   42.5073 H   0  0  0  0  0  0  0  0  0  0  0  0
   30.3492   25.6272   40.9630 N   0  0  0  0  0  0  0  0  0  0  0  0
   31.0976   24.9709   40.7969 H   0  0  0  0  0  0  0  0  0  0  0  0
   29.1161   25.6714   40.3892 C   0  0  0  0  0  0  0  0  0  0  0  0
   28.4064   26.6710   40.8978 N   0  0  0  0  0  0  0  0  0  0  0  0
   29.1425   27.2763   41.7990 N   0  0  0  0  0  0  0  0  0  0  0  0
  1  2  2  0
  1  6  1  0
  1 26  1  0
  2  3  1  0
  2 27  1  0
  3  4  2  0
  3 23  1  0
  4  5  1  0
  4  8  1  0
  5  6  2  0
  5  7  1  0
  6 28  1  0
  8  9  2  0
  8 10  1  0
 10 11  1  0
 10 29  1  0
 11 12  2  0
 11 16  1  0
 12 13  1  0
 12 30  1  0
 13 14  2  0
 13 31  1  0
 14 15  1  0
 15 16  2  0
 15 17  1  0
 16 32  1  0
 17 18  1  0
 17 33  1  0
 18 19  2  0
 18 20  1  0
 20 21  1  0
 20 22  1  0
 20 24  1  1
 21 22  1  0
 21 34  1  0
 21 35  1  0
 22 25  1  1
 22 40  1  0
 36 37  1  0
 36 38  1  0
 36 42  2  0
 38 39  1  0
 38 40  1  0
 40 41  2  0
 41 42  1  0
M  END
> <intraLJ>
25.211    

> <intraEL>
-18.088   

> <intraDihe>
61.986    

> <interLJ>
0.000     

> <interEJ>
0.000     

> <gridLJ>
-10.284   

> <gridEL>
0.000     

> <totalE>
58.824    

> <LGFE>
-10.284 

> <LE>
-0.367  

> <SMILES>
O=C(Nc1ccnc(NC(=O)[C@H]2C[C@H]2c2nnc[nH]2)c1)c1c(Cl)cccc1Cl

> <atom.dprop.GFE>
0.0579 0.0237 -0.0384 0.0222 0.0077 0.2228 -1.7850 0.0000 0.1380 -0.6230 -0.2911 -0.2254 -0.2234 -1.7190 -0.3453 -0.2806 -1.8690 0.0000 -0.8080 -0.2075 -0.0176 -0.2308 -0.6700 0.0000 0.0000 0.0000 0.0000 0.0000 0.0000 0.0000 0.0000 0.0000 0.0000 0.0000 0.0000 0.1029 0.0000 -0.8130 0.0000 -0.2704 -0.5800 0.1380

> <atom.prop.CLASS>
BENC BENC BENC BENC BENC BENC CLBX NCLA FORO FORN BENC BENC GEHC IMIN GEHC BENC FORN NCLA FORO PRPC PRPC PRPC CLBX NCLA NCLA NCLA NCLA NCLA NCLA NCLA NCLA NCLA NCLA NCLA NCLA GEHC NCLA IMIH NCLA GEHC IMIN IMIN

> <cluster_id>
1

> <rmsd_to_cluster_rep>
0.00    

> <ligRMSD>
2.04    

> <ligCOMD>
0.91    

$$$$
tyk2_liang_jmc_35_4gj3_514
     RDKit          3D

 37 39  0  0  1  0  0  0  0  0999 V2000
   28.6686   29.8641   34.1043 C   0  0  0  0  0  0  0  0  0  0  0  0
   28.7219   30.6156   33.3360 H   0  0  0  0  0  0  0  0  0  0  0  0
   27.9363   28.6952   33.8628 C   0  0  0  0  0  0  0  0  0  0  0  0
   27.4359   28.5486   32.9144 H   0  0  0  0  0  0  0  0  0  0  0  0
   27.8406   27.7315   34.7734 N   0  0  0  0  0  0  0  0  0  0  0  0
   28.4186   27.8462   35.9693 C   0  0  0  0  0  0  0  0  0  0  0  0
   29.1958   28.9625   36.2908 C   0  0  0  0  0  0  0  0  0  0  0  0
   29.7107   29.0346   37.2353 H   0  0  0  0  0  0  0  0  0  0  0  0
   29.3155   29.9941   35.3427 C   0  0  0  0  0  0  0  0  0  0  0  0
   30.1342   31.0847   35.7416 N   0  0  0  0  0  0  0  0  0  0  0  0
   30.1786   31.1889   36.7310 H   0  0  0  0  0  0  0  0  0  0  0  0
   30.8641   31.9290   34.9764 C   0  0  0  0  0  0  0  0  0  0  0  0
   30.8938   31.9204   33.7484 O   0  0  0  0  0  0  0  0  0  0  0  0
   31.6872   32.9107   35.7158 C   0  0  0  0  0  0  0  0  0  0  0  0
   32.6145   32.4669   36.6804 C   0  0  0  0  0  0  0  0  0  0  0  0
   33.3746   33.3986   37.3934 C   0  0  0  0  0  0  0  0  0  0  0  0
   34.0812   33.0564   38.1356 H   0  0  0  0  0  0  0  0  0  0  0  0
   33.2182   34.7665   37.1480 C   0  0  0  0  0  0  0  0  0  0  0  0
   32.2984   35.2132   36.1943 C   0  0  0  0  0  0  0  0  0  0  0  0
   32.1769   36.2706   36.0085 H   0  0  0  0  0  0  0  0  0  0  0  0
   31.5265   34.2917   35.4819 C   0  0  0  0  0  0  0  0  0  0  0  0
   30.3880   34.9012   34.3128 Cl  0  0  0  0  0  0  0  0  0  0  0  0
   34.0018   35.7154   37.8774 C   0  0  0  0  0  0  0  0  0  0  0  0
   34.6483   36.4981   38.4766 N   0  0  0  0  0  0  0  0  0  0  0  0
   32.8233   30.7770   37.0525 Cl  0  0  0  0  0  0  0  0  0  0  0  0
   28.2863   26.7394   36.8575 N   0  0  0  0  0  0  0  0  0  0  0  0
   27.3758   26.3379   36.8535 H   0  0  0  0  0  0  0  0  0  0  0  0
   29.2492   26.2567   37.6754 C   0  0  0  0  0  0  0  0  0  0  0  0
   30.3432   26.7920   37.8531 O   0  0  0  0  0  0  0  0  0  0  0  0
   28.8615   25.0795   38.5305 C   0  0  1  0  0  0  0  0  0  0  0  0
   28.2309   25.3209   39.9053 C   0  0  0  0  0  0  0  0  0  0  0  0
   28.0353   26.3387   40.1991 H   0  0  0  0  0  0  0  0  0  0  0  0
   28.4793   24.6088   40.6745 H   0  0  0  0  0  0  0  0  0  0  0  0
   27.3902   24.7884   38.7394 C   0  0  1  0  0  0  0  0  0  0  0  0
   26.4332   25.5590   38.1209 F   0  0  0  0  0  0  0  0  0  0  0  0
   29.5184   24.2264   38.4647 H   0  0  0  0  0  0  0  0  0  0  0  0
   27.1205   23.7450   38.8055 H   0  0  0  0  0  0  0  0  0  0  0  0
  1  2  1  0
  1  3  2  0
  1  9  1  0
  3  4  1  0
  3  5  1  0
  5  6  2  0
  6  7  1  0
  6 26  1  0
  7  8  1  0
  7  9  2  0
  9 10  1  0
 10 11  1  0
 10 12  1  0
 12 13  2  0
 12 14  1  0
 14 15  2  0
 14 21  1  0
 15 16  1  0
 15 25  1  0
 16 17  1  0
 16 18  2  0
 18 19  1  0
 18 23  1  0
 19 20  1  0
 19 21  2  0
 21 22  1  0
 23 24  3  0
 26 27  1  0
 26 28  1  0
 28 29  2  0
 28 30  1  0
 30 31  1  0
 30 34  1  0
 30 36  1  1
 31 32  1  0
 31 33  1  0
 31 34  1  0
 34 35  1  0
 34 37  1  1
M  END
> <intraLJ>
29.342    

> <intraEL>
-17.855   

> <intraDihe>
30.480    

> <interLJ>
0.000     

> <interEJ>
0.000     

> <gridLJ>
-8.118    

> <gridEL>
0.000     

> <totalE>
33.848    

> <LGFE>
-8.118  

> <LE>
-0.312  

> <SMILES>
N#Cc1cc(Cl)c(C(=O)Nc2ccnc(NC(=O)[C@H]3C[C@H]3F)c2)c(Cl)c1

> <atom.dprop.GFE>
-0.2911 0.0000 -0.1935 0.0000 -1.0780 -0.0902 -0.2430 0.0000 -0.3086 -0.6230 0.0000 0.0000 -0.4850 0.0132 0.0144 -0.0028 0.0000 0.0514 0.2679 0.0000 0.0610 -1.7690 0.0000 0.0000 -0.4170 -1.8690 0.0000 0.0000 -0.8080 -0.0839 -0.2664 0.0000 0.0000 -0.2075 0.2100 0.0000 0.0000

> <atom.prop.CLASS>
BENC NCLA GEHC NCLA IMIN GEHC BENC NCLA BENC FORN NCLA NCLA FORO BENC BENC BENC NCLA BENC BENC NCLA BENC CLBX NCLA NCLA CLBX FORN NCLA NCLA FORO PRPC PRPC NCLA NCLA PRPC FETX NCLA NCLA

> <cluster_id>
1

> <rmsd_to_cluster_rep>
0.00    

> <ligRMSD>
1.76    

> <ligCOMD>
0.95    

$$$$
tyk2_liang_jmc_36_161
     RDKit          3D

 36 38  0  0  1  0  0  0  0  0999 V2000
   33.8641   33.9989   36.2907 C   0  0  0  0  0  0  0  0  0  0  0  0
   33.3176   33.1236   37.2385 C   0  0  0  0  0  0  0  0  0  0  0  0
   32.1653   32.4036   36.9210 C   0  0  0  0  0  0  0  0  0  0  0  0
   31.5398   32.5452   35.6711 C   0  0  0  0  0  0  0  0  0  0  0  0
   32.0926   33.4292   34.7275 C   0  0  0  0  0  0  0  0  0  0  0  0
   33.2539   34.1436   35.0403 C   0  0  0  0  0  0  0  0  0  0  0  0
   31.3771   33.6239   33.1486 Cl  0  0  0  0  0  0  0  0  0  0  0  0
   30.2859   31.8377   35.3310 C   0  0  0  0  0  0  0  0  0  0  0  0
   29.3878   32.4538   34.7649 O   0  0  0  0  0  0  0  0  0  0  0  0
   30.2351   30.5270   35.6440 N   0  0  0  0  0  0  0  0  0  0  0  0
   29.2093   29.5963   35.3275 C   0  0  0  0  0  0  0  0  0  0  0  0
   28.2936   29.6893   34.2679 C   0  0  0  0  0  0  0  0  0  0  0  0
   27.3885   28.6348   34.0855 C   0  0  0  0  0  0  0  0  0  0  0  0
   27.3756   27.5772   34.8924 N   0  0  0  0  0  0  0  0  0  0  0  0
   28.2227   27.4802   35.9179 C   0  0  0  0  0  0  0  0  0  0  0  0
   29.1871   28.4644   36.1494 C   0  0  0  0  0  0  0  0  0  0  0  0
   28.1597   26.2959   36.7067 N   0  0  0  0  0  0  0  0  0  0  0  0
   28.4911   26.1980   38.0150 C   0  0  0  0  0  0  0  0  0  0  0  0
   28.7557   27.1527   38.7460 O   0  0  0  0  0  0  0  0  0  0  0  0
   28.3715   24.8323   38.6228 C   0  0  1  0  0  0  0  0  0  0  0  0
   29.1719   24.5104   39.8864 C   0  0  0  0  0  0  0  0  0  0  0  0
   27.6473   24.6728   39.9434 C   0  0  1  0  0  0  0  0  0  0  0  0
   27.0422   25.7465   40.5564 F   0  0  0  0  0  0  0  0  0  0  0  0
   31.6688   31.5492   37.8613 F   0  0  0  0  0  0  0  0  0  0  0  0
   28.2746   24.0233   37.9160 H   0  0  0  0  0  0  0  0  0  0  0  0
   27.0942   23.7531   40.0636 H   0  0  0  0  0  0  0  0  0  0  0  0
   34.7579   34.5587   36.5235 H   0  0  0  0  0  0  0  0  0  0  0  0
   33.7936   33.0125   38.2012 H   0  0  0  0  0  0  0  0  0  0  0  0
   33.6798   34.8153   34.3093 H   0  0  0  0  0  0  0  0  0  0  0  0
   31.0064   30.1158   36.1214 H   0  0  0  0  0  0  0  0  0  0  0  0
   28.2783   30.5168   33.5803 H   0  0  0  0  0  0  0  0  0  0  0  0
   26.6770   28.6595   33.2705 H   0  0  0  0  0  0  0  0  0  0  0  0
   29.9289   28.3702   36.9250 H   0  0  0  0  0  0  0  0  0  0  0  0
   27.8366   25.5015   36.2017 H   0  0  0  0  0  0  0  0  0  0  0  0
   29.5487   23.5040   39.9611 H   0  0  0  0  0  0  0  0  0  0  0  0
   29.7473   25.3020   40.3369 H   0  0  0  0  0  0  0  0  0  0  0  0
  1  2  2  0
  1  6  1  0
  1 27  1  0
  2  3  1  0
  2 28  1  0
  3  4  2  0
  3 24  1  0
  4  5  1  0
  4  8  1  0
  5  6  2  0
  5  7  1  0
  6 29  1  0
  8  9  2  0
  8 10  1  0
 10 11  1  0
 10 30  1  0
 11 12  2  0
 11 16  1  0
 12 13  1  0
 12 31  1  0
 13 14  2  0
 13 32  1  0
 14 15  1  0
 15 16  2  0
 15 17  1  0
 16 33  1  0
 17 18  1  0
 17 34  1  0
 18 19  2  0
 18 20  1  0
 20 21  1  0
 20 22  1  0
 20 25  1  6
 21 22  1  0
 21 35  1  0
 21 36  1  0
 22 23  1  0
 22 26  1  6
M  END
> <intraLJ>
26.857    

> <intraEL>
-16.238   

> <intraDihe>
39.702    

> <interLJ>
0.000     

> <interEJ>
0.000     

> <gridLJ>
-8.330    

> <gridEL>
0.000     

> <totalE>
41.992    

> <LGFE>
-8.330  

> <LE>
-0.347  

> <SMILES>
O=C(Nc1ccnc(NC(=O)[C@H]2C[C@H]2F)c1)c1c(F)cccc1Cl

> <atom.dprop.GFE>
0.1655 -0.0028 0.0301 -0.0381 0.0077 0.0620 -1.5660 0.0000 -0.3830 -0.4130 -0.2806 -0.2919 -0.2458 -1.7190 -0.3453 -0.2735 -1.8690 0.0000 -0.5580 -0.2075 -0.2308 -0.2541 -0.0860 0.1690 0.0000 0.0000 0.0000 0.0000 0.0000 0.0000 0.0000 0.0000 0.0000 0.0000 0.0000 0.0000

> <atom.prop.CLASS>
BENC BENC BENC BENC BENC BENC CLBX NCLA FORO FORN BENC BENC GEHC IMIN GEHC BENC FORN NCLA FORO PRPC PRPC PRPC FETX FLBX NCLA NCLA NCLA NCLA NCLA NCLA NCLA NCLA NCLA NCLA NCLA NCLA

> <cluster_id>
1

> <rmsd_to_cluster_rep>
0.00    

> <ligRMSD>
1.25    

> <ligCOMD>
0.92    

$$$$
tyk2_liang_jmc_37_680
     RDKit          3D

 37 39  0  0  1  0  0  0  0  0999 V2000
   33.9078   33.8114   36.3793 C   0  0  0  0  0  0  0  0  0  0  0  0
   33.3617   32.9214   37.3115 C   0  0  0  0  0  0  0  0  0  0  0  0
   32.1885   32.2446   36.9912 C   0  0  0  0  0  0  0  0  0  0  0  0
   31.5462   32.4455   35.7582 C   0  0  0  0  0  0  0  0  0  0  0  0
   32.1031   33.3456   34.8330 C   0  0  0  0  0  0  0  0  0  0  0  0
   33.2852   34.0172   35.1457 C   0  0  0  0  0  0  0  0  0  0  0  0
   31.3745   33.6171   33.2735 Cl  0  0  0  0  0  0  0  0  0  0  0  0
   30.2706   31.7864   35.4208 C   0  0  0  0  0  0  0  0  0  0  0  0
   29.3854   32.4439   34.8823 O   0  0  0  0  0  0  0  0  0  0  0  0
   30.1887   30.4720   35.7053 N   0  0  0  0  0  0  0  0  0  0  0  0
   29.1358   29.5770   35.3800 C   0  0  0  0  0  0  0  0  0  0  0  0
   28.2118   29.7186   34.3332 C   0  0  0  0  0  0  0  0  0  0  0  0
   27.2735   28.6956   34.1414 C   0  0  0  0  0  0  0  0  0  0  0  0
   27.2388   27.6226   34.9269 N   0  0  0  0  0  0  0  0  0  0  0  0
   28.0938   27.4802   35.9405 C   0  0  0  0  0  0  0  0  0  0  0  0
   29.0891   28.4306   36.1806 C   0  0  0  0  0  0  0  0  0  0  0  0
   28.0022   26.2830   36.7065 N   0  0  0  0  0  0  0  0  0  0  0  0
   28.3587   26.1440   38.0046 C   0  0  0  0  0  0  0  0  0  0  0  0
   28.6749   27.0712   38.7500 O   0  0  0  0  0  0  0  0  0  0  0  0
   28.2003   24.7715   38.5869 C   0  0  1  0  0  0  0  0  0  0  0  0
   29.0230   24.3891   39.8188 C   0  0  0  0  0  0  0  0  0  0  0  0
   27.5088   24.6147   39.9258 C   0  0  1  0  0  0  0  0  0  0  0  0
   26.9651   25.6959   40.5827 F   0  0  0  0  0  0  0  0  0  0  0  0
   31.6912   31.3759   37.9156 F   0  0  0  0  0  0  0  0  0  0  0  0
   28.0466   23.9828   37.8673 H   0  0  0  0  0  0  0  0  0  0  0  0
   26.9221   23.7158   40.0431 H   0  0  0  0  0  0  0  0  0  0  0  0
   33.8507   32.7656   38.2620 H   0  0  0  0  0  0  0  0  0  0  0  0
   33.7148   34.7021   34.4282 H   0  0  0  0  0  0  0  0  0  0  0  0
   30.9544   30.0291   36.1629 H   0  0  0  0  0  0  0  0  0  0  0  0
   28.2132   30.5604   33.6628 H   0  0  0  0  0  0  0  0  0  0  0  0
   26.5536   28.7576   33.3358 H   0  0  0  0  0  0  0  0  0  0  0  0
   29.8347   28.2998   36.9473 H   0  0  0  0  0  0  0  0  0  0  0  0
   27.6357   25.5131   36.1933 H   0  0  0  0  0  0  0  0  0  0  0  0
   29.3561   23.3657   39.8648 H   0  0  0  0  0  0  0  0  0  0  0  0
   29.6445   25.1452   40.2688 H   0  0  0  0  0  0  0  0  0  0  0  0
   35.1138   34.5141   36.6854 C   0  0  0  0  0  0  0  0  0  0  0  0
   36.1085   35.0930   36.9390 N   0  0  0  0  0  0  0  0  0  0  0  0
  1  2  2  0
  1  6  1  0
  1 36  1  0
  2  3  1  0
  2 27  1  0
  3  4  2  0
  3 24  1  0
  4  5  1  0
  4  8  1  0
  5  6  2  0
  5  7  1  0
  6 28  1  0
  8  9  2  0
  8 10  1  0
 10 11  1  0
 10 29  1  0
 11 12  2  0
 11 16  1  0
 12 13  1  0
 12 30  1  0
 13 14  2  0
 13 31  1  0
 14 15  1  0
 15 16  2  0
 15 17  1  0
 16 32  1  0
 17 18  1  0
 17 33  1  0
 18 19  2  0
 18 20  1  0
 20 21  1  0
 20 22  1  0
 20 25  1  6
 21 22  1  0
 21 34  1  0
 21 35  1  0
 22 23  1  0
 22 26  1  6
 36 37  3  0
M  END
> <intraLJ>
26.498    

> <intraEL>
-16.385   

> <intraDihe>
39.454    

> <interLJ>
0.000     

> <interEJ>
0.000     

> <gridLJ>
-8.257    

> <gridEL>
0.000     

> <totalE>
41.310    

> <LGFE>
-8.257  

> <LE>
-0.318  

> <SMILES>
N#Cc1cc(F)c(C(=O)Nc2ccnc(NC(=O)[C@H]3C[C@H]3F)c2)c(Cl)c1

> <atom.dprop.GFE>
0.1655 -0.0028 -0.0304 -0.0381 0.0077 0.0620 -1.5660 0.0000 -0.3830 -0.4130 -0.2806 -0.2919 -0.1122 -1.7190 -0.3453 -0.2735 -1.8690 0.0000 -0.5580 -0.2075 -0.2308 -0.2541 -0.0860 0.1690 0.0000 0.0000 0.0000 0.0000 0.0000 0.0000 0.0000 0.0000 0.0000 0.0000 0.0000 0.0000 0.0000

> <atom.prop.CLASS>
BENC BENC BENC BENC BENC BENC CLBX NCLA FORO FORN BENC BENC GEHC IMIN GEHC BENC FORN NCLA FORO PRPC PRPC PRPC FETX FLBX NCLA NCLA NCLA NCLA NCLA NCLA NCLA NCLA NCLA NCLA NCLA NCLA NCLA

> <cluster_id>
1

> <rmsd_to_cluster_rep>
0.00    

> <ligRMSD>
1.34    

> <ligCOMD>
1.00    

$$$$
