ptp1b_wilson_01
  MOE2024           3D
ptp1b_wilson_01
 22 23  0  0  0  0  0  0  0  0999 V2000
   44.6510   14.0740    0.6210 S   0  0  0  0  0  0  0  0  0  0  0  0
   44.7900   15.4820    1.5710 C   0  0  0  0  0  0  0  0  0  0  0  0
   45.6940   15.2460    2.6400 C   0  0  0  0  0  0  0  0  0  0  0  0
   46.2444   13.9465    2.6648 C   0  0  0  0  0  0  0  0  0  0  0  0
   45.7666   13.1799    1.6043 C   0  0  0  0  0  0  0  0  0  0  0  0
   44.0570   16.6430    1.2480 C   0  0  0  0  0  0  0  0  0  0  0  0
   43.4980   16.6800    0.1500 O   0  0  0  0  0  0  0  0  0  0  0  0
   43.9810   17.5810    2.0360 O   0  5  0  0  0  0  0  0  0  0  0  0
   46.0630   16.1740    3.6490 O   0  0  0  0  0  0  0  0  0  0  0  0
   47.2490   16.9320    3.4120 C   0  0  0  0  0  0  0  0  0  0  0  0
   47.0569   17.6950    2.6577 H   0  0  0  0  0  0  0  0  0  0  0  0
   48.0471   16.2740    3.0682 H   0  0  0  0  0  0  0  0  0  0  0  0
   47.6510   17.5920    4.7270 C   0  0  0  0  0  0  0  0  0  0  0  0
   46.8770   17.5250    5.6970 O   0  0  0  0  0  0  0  0  0  0  0  0
   48.7320   18.1660    4.7830 O   0  5  0  0  0  0  0  0  0  0  0  0
   46.1412   11.8886    1.3823 N   0  0  0  0  0  0  0  0  0  0  0  0
   46.9970   11.3518    2.2300 C   0  0  0  0  0  0  0  0  0  0  0  0
   47.2931   10.3474    2.0644 H   0  0  0  0  0  0  0  0  0  0  0  0
   47.5241   12.0570    3.3356 C   0  0  0  0  0  0  0  0  0  0  0  0
   48.2058   11.5761    3.9871 H   0  0  0  0  0  0  0  0  0  0  0  0
   47.1495   13.3639    3.5635 C   0  0  0  0  0  0  0  0  0  0  0  0
   47.5205   13.9228    4.3861 H   0  0  0  0  0  0  0  0  0  0  0  0
  1  2  1  0  0  0  0
  1  5  1  0  0  0  0
  2  3  2  0  0  0  0
  2  6  1  0  0  0  0
  3  4  1  0  0  0  0
  3  9  1  0  0  0  0
  4  5  1  0  0  0  0
  4 21  2  0  0  0  0
  5 16  2  0  0  0  0
  6  7  2  0  0  0  0
  6  8  1  0  0  0  0
  9 10  1  0  0  0  0
 10 11  1  0  0  0  0
 10 12  1  0  0  0  0
 10 13  1  0  0  0  0
 13 14  2  0  0  0  0
 13 15  1  0  0  0  0
 16 17  1  0  0  0  0
 17 18  1  0  0  0  0
 17 19  2  0  0  0  0
 19 20  1  0  0  0  0
 19 21  1  0  0  0  0
 21 22  1  0  0  0  0
M  CHG  1   8  -1
M  CHG  1  15  -1
M  END
$$$$
ptp1b_wilson_02
  MOE2024           3D
ptp1b_wilson_02
 26 28  0  0  0  0  0  0  0  0999 V2000
   44.6510   14.0740    0.6210 S   0  0  0  0  0  0  0  0  0  0  0  0
   44.7900   15.4820    1.5710 C   0  0  0  0  0  0  0  0  0  0  0  0
   45.6940   15.2460    2.6400 C   0  0  0  0  0  0  0  0  0  0  0  0
   46.2283   13.9515    2.6413 C   0  0  0  0  0  0  0  0  0  0  0  0
   45.7645   13.1842    1.6142 C   0  0  0  0  0  0  0  0  0  0  0  0
   44.0570   16.6430    1.2480 C   0  0  0  0  0  0  0  0  0  0  0  0
   43.4980   16.6800    0.1500 O   0  0  0  0  0  0  0  0  0  0  0  0
   43.9810   17.5810    2.0360 O   0  5  0  0  0  0  0  0  0  0  0  0
   46.0630   16.1740    3.6490 O   0  0  0  0  0  0  0  0  0  0  0  0
   47.2490   16.9320    3.4120 C   0  0  0  0  0  0  0  0  0  0  0  0
   47.0569   17.6950    2.6577 H   0  0  0  0  0  0  0  0  0  0  0  0
   48.0471   16.2740    3.0682 H   0  0  0  0  0  0  0  0  0  0  0  0
   47.6510   17.5920    4.7270 C   0  0  0  0  0  0  0  0  0  0  0  0
   46.8770   17.5250    5.6970 O   0  0  0  0  0  0  0  0  0  0  0  0
   48.7320   18.1660    4.7830 O   0  5  0  0  0  0  0  0  0  0  0  0
   46.2780   11.8614    1.5831 C   0  0  0  0  0  0  0  0  0  0  0  0
   47.1679   11.6561    2.6447 C   0  0  0  0  0  0  0  0  0  0  0  0
   47.3571   13.0747    3.6521 S   0  0  0  0  0  0  0  0  0  0  0  0
   47.8046   10.4202    2.8255 C   0  0  0  0  0  0  0  0  0  0  0  0
   48.4741   10.2860    3.6353 H   0  0  0  0  0  0  0  0  0  0  0  0
   47.5409    9.3926    1.9343 C   0  0  0  0  0  0  0  0  0  0  0  0
   48.0130    8.4511    2.0559 H   0  0  0  0  0  0  0  0  0  0  0  0
   46.6464    9.5880    0.8636 C   0  0  0  0  0  0  0  0  0  0  0  0
   46.4539    8.7918    0.1907 H   0  0  0  0  0  0  0  0  0  0  0  0
   46.0187   10.8114    0.6863 C   0  0  0  0  0  0  0  0  0  0  0  0
   45.3448   10.9616   -0.1182 H   0  0  0  0  0  0  0  0  0  0  0  0
  1  2  1  0  0  0  0
  1  5  1  0  0  0  0
  2  3  2  0  0  0  0
  2  6  1  0  0  0  0
  3  4  1  0  0  0  0
  3  9  1  0  0  0  0
  4  5  2  0  0  0  0
  4 18  1  0  0  0  0
  5 16  1  0  0  0  0
  6  7  2  0  0  0  0
  6  8  1  0  0  0  0
  9 10  1  0  0  0  0
 10 11  1  0  0  0  0
 10 12  1  0  0  0  0
 10 13  1  0  0  0  0
 13 14  2  0  0  0  0
 13 15  1  0  0  0  0
 16 17  1  0  0  0  0
 16 25  2  0  0  0  0
 17 18  1  0  0  0  0
 17 19  2  0  0  0  0
 19 20  1  0  0  0  0
 19 21  1  0  0  0  0
 21 22  1  0  0  0  0
 21 23  2  0  0  0  0
 23 24  1  0  0  0  0
 23 25  1  0  0  0  0
 25 26  1  0  0  0  0
M  CHG  1   8  -1
M  CHG  1  15  -1
M  END
$$$$
ptp1b_wilson_03
  MOE2024           3D
ptp1b_wilson_03
 27 28  0  0  0  0  0  0  0  0999 V2000
   44.6510   14.0740    0.6210 S   0  0  0  0  0  0  0  0  0  0  0  0
   44.7900   15.4820    1.5710 C   0  0  0  0  0  0  0  0  0  0  0  0
   45.6940   15.2460    2.6400 C   0  0  0  0  0  0  0  0  0  0  0  0
   46.2290   13.9270    2.6200 C   0  0  0  0  0  0  0  0  0  0  0  0
   45.7340   13.1350    1.5470 C   0  0  0  0  0  0  0  0  0  0  0  0
   44.0570   16.6430    1.2480 C   0  0  0  0  0  0  0  0  0  0  0  0
   43.4980   16.6800    0.1500 O   0  0  0  0  0  0  0  0  0  0  0  0
   43.9810   17.5810    2.0360 O   0  5  0  0  0  0  0  0  0  0  0  0
   46.0160   11.7110    1.1830 C   0  0  0  0  0  0  0  0  0  0  0  0
   47.2610   11.0370    1.4450 C   0  0  0  0  0  0  0  0  0  0  0  0
   48.0773   11.5626    1.9181 H   0  0  0  0  0  0  0  0  0  0  0  0
   47.4050    9.6640    1.0720 C   0  0  0  0  0  0  0  0  0  0  0  0
   48.3361    9.1533    1.2686 H   0  0  0  0  0  0  0  0  0  0  0  0
   46.3290    8.9560    0.4400 C   0  0  0  0  0  0  0  0  0  0  0  0
   46.4561    7.9192    0.1655 H   0  0  0  0  0  0  0  0  0  0  0  0
   45.0950    9.6130    0.1730 C   0  0  0  0  0  0  0  0  0  0  0  0
   44.2837    9.0851   -0.3060 H   0  0  0  0  0  0  0  0  0  0  0  0
   44.9490   10.9800    0.5490 C   0  0  0  0  0  0  0  0  0  0  0  0
   44.0127   11.4815    0.3532 H   0  0  0  0  0  0  0  0  0  0  0  0
   47.4770   13.3320    3.9450 Br  0  0  0  0  0  0  0  0  0  0  0  0
   46.0630   16.1740    3.6490 O   0  0  0  0  0  0  0  0  0  0  0  0
   47.2490   16.9320    3.4120 C   0  0  0  0  0  0  0  0  0  0  0  0
   47.0569   17.6950    2.6577 H   0  0  0  0  0  0  0  0  0  0  0  0
   48.0471   16.2740    3.0682 H   0  0  0  0  0  0  0  0  0  0  0  0
   47.6510   17.5920    4.7270 C   0  0  0  0  0  0  0  0  0  0  0  0
   46.8770   17.5250    5.6970 O   0  0  0  0  0  0  0  0  0  0  0  0
   48.7320   18.1660    4.7830 O   0  5  0  0  0  0  0  0  0  0  0  0
  1  2  1  0  0  0  0
  1  5  1  0  0  0  0
  2  3  2  0  0  0  0
  2  6  1  0  0  0  0
  3  4  1  0  0  0  0
  3 21  1  0  0  0  0
  4  5  2  0  0  0  0
  4 20  1  0  0  0  0
  5  9  1  0  0  0  0
  6  7  2  0  0  0  0
  6  8  1  0  0  0  0
  9 10  1  0  0  0  0
  9 18  2  0  0  0  0
 10 11  1  0  0  0  0
 10 12  2  0  0  0  0
 12 13  1  0  0  0  0
 12 14  1  0  0  0  0
 14 15  1  0  0  0  0
 14 16  2  0  0  0  0
 16 17  1  0  0  0  0
 16 18  1  0  0  0  0
 18 19  1  0  0  0  0
 21 22  1  0  0  0  0
 22 23  1  0  0  0  0
 22 24  1  0  0  0  0
 22 25  1  0  0  0  0
 25 26  2  0  0  0  0
 25 27  1  0  0  0  0
M  CHG  1   8  -1
M  CHG  1  27  -1
M  END
$$$$
ptp1b_wilson_08
  MOE2024           3D
ptp1b_wilson_08
 29 30  0  0  0  0  0  0  0  0999 V2000
   44.6510   14.0740    0.6210 S   0  0  0  0  0  0  0  0  0  0  0  0
   44.7900   15.4820    1.5710 C   0  0  0  0  0  0  0  0  0  0  0  0
   45.6940   15.2460    2.6400 C   0  0  0  0  0  0  0  0  0  0  0  0
   46.2290   13.9270    2.6200 C   0  0  0  0  0  0  0  0  0  0  0  0
   45.7340   13.1350    1.5470 C   0  0  0  0  0  0  0  0  0  0  0  0
   44.0570   16.6430    1.2480 C   0  0  0  0  0  0  0  0  0  0  0  0
   43.4980   16.6800    0.1500 O   0  0  0  0  0  0  0  0  0  0  0  0
   43.9810   17.5810    2.0360 O   0  5  0  0  0  0  0  0  0  0  0  0
   46.0536   11.7655    1.1759 C   0  0  0  0  0  0  0  0  0  0  0  0
   47.3832   11.3495    1.0567 C   0  0  0  0  0  0  0  0  0  0  0  0
   48.1691   12.0381    1.2211 H   0  0  0  0  0  0  0  0  0  0  0  0
   47.6760   10.0350    0.7106 C   0  0  0  0  0  0  0  0  0  0  0  0
   46.6582    9.1180    0.4536 C   0  0  0  0  0  0  0  0  0  0  0  0
   46.8951    8.1237    0.1789 H   0  0  0  0  0  0  0  0  0  0  0  0
   45.3335    9.5287    0.5555 C   0  0  0  0  0  0  0  0  0  0  0  0
   44.5498    8.8427    0.3591 H   0  0  0  0  0  0  0  0  0  0  0  0
   45.0320   10.8408    0.9132 C   0  0  0  0  0  0  0  0  0  0  0  0
   44.0208   11.1498    0.9891 H   0  0  0  0  0  0  0  0  0  0  0  0
   47.4175   13.2753    3.9367 Br  0  0  0  0  0  0  0  0  0  0  0  0
   46.0630   16.1740    3.6490 O   0  0  0  0  0  0  0  0  0  0  0  0
   47.2490   16.9320    3.4120 C   0  0  0  0  0  0  0  0  0  0  0  0
   47.0569   17.6950    2.6577 H   0  0  0  0  0  0  0  0  0  0  0  0
   48.0471   16.2740    3.0682 H   0  0  0  0  0  0  0  0  0  0  0  0
   47.6510   17.5920    4.7270 C   0  0  0  0  0  0  0  0  0  0  0  0
   46.8770   17.5250    5.6970 O   0  0  0  0  0  0  0  0  0  0  0  0
   48.7320   18.1660    4.7830 O   0  5  0  0  0  0  0  0  0  0  0  0
   49.0005    9.6350    0.6248 N   0  0  0  0  0  0  0  0  0  0  0  0
   49.6522   10.2125    1.1749 H   0  0  0  0  0  0  0  0  0  0  0  0
   49.1435    8.6223    0.7423 H   0  0  0  0  0  0  0  0  0  0  0  0
  1  2  1  0  0  0  0
  1  5  1  0  0  0  0
  2  3  2  0  0  0  0
  2  6  1  0  0  0  0
  3  4  1  0  0  0  0
  3 20  1  0  0  0  0
  4  5  2  0  0  0  0
  4 19  1  0  0  0  0
  5  9  1  0  0  0  0
  6  7  2  0  0  0  0
  6  8  1  0  0  0  0
  9 10  1  0  0  0  0
  9 17  2  0  0  0  0
 10 11  1  0  0  0  0
 10 12  2  0  0  0  0
 12 13  1  0  0  0  0
 12 27  1  0  0  0  0
 13 14  1  0  0  0  0
 13 15  2  0  0  0  0
 15 16  1  0  0  0  0
 15 17  1  0  0  0  0
 17 18  1  0  0  0  0
 20 21  1  0  0  0  0
 21 22  1  0  0  0  0
 21 23  1  0  0  0  0
 21 24  1  0  0  0  0
 24 25  2  0  0  0  0
 24 26  1  0  0  0  0
 27 28  1  0  0  0  0
 27 29  1  0  0  0  0
M  CHG  1   8  -1
M  CHG  1  26  -1
M  END
$$$$
ptp1b_wilson_09
  MOE2024           3D
ptp1b_wilson_09
 28 29  0  0  0  0  0  0  0  0999 V2000
   44.6510   14.0740    0.6210 S   0  0  0  0  0  0  0  0  0  0  0  0
   44.7900   15.4820    1.5710 C   0  0  0  0  0  0  0  0  0  0  0  0
   45.6940   15.2460    2.6400 C   0  0  0  0  0  0  0  0  0  0  0  0
   46.2290   13.9270    2.6200 C   0  0  0  0  0  0  0  0  0  0  0  0
   45.7340   13.1350    1.5470 C   0  0  0  0  0  0  0  0  0  0  0  0
   44.0570   16.6430    1.2480 C   0  0  0  0  0  0  0  0  0  0  0  0
   43.4980   16.6800    0.1500 O   0  0  0  0  0  0  0  0  0  0  0  0
   43.9810   17.5810    2.0360 O   0  5  0  0  0  0  0  0  0  0  0  0
   46.0379   11.7596    1.1847 C   0  0  0  0  0  0  0  0  0  0  0  0
   47.3629   11.3275    1.0515 C   0  0  0  0  0  0  0  0  0  0  0  0
   48.1548   12.0113    1.2082 H   0  0  0  0  0  0  0  0  0  0  0  0
   47.6283   10.0080    0.7077 C   0  0  0  0  0  0  0  0  0  0  0  0
   48.9159    9.5896    0.5873 O   0  0  0  0  0  0  0  0  0  0  0  0
   49.5346   10.3185    0.7814 H   0  0  0  0  0  0  0  0  0  0  0  0
   46.6039    9.0968    0.4802 C   0  0  0  0  0  0  0  0  0  0  0  0
   46.8331    8.0960    0.2187 H   0  0  0  0  0  0  0  0  0  0  0  0
   45.2842    9.5213    0.5990 C   0  0  0  0  0  0  0  0  0  0  0  0
   44.4910    8.8401    0.4247 H   0  0  0  0  0  0  0  0  0  0  0  0
   45.0041   10.8412    0.9462 C   0  0  0  0  0  0  0  0  0  0  0  0
   43.9972   11.1610    1.0346 H   0  0  0  0  0  0  0  0  0  0  0  0
   47.4195   13.2735    3.9336 Br  0  0  0  0  0  0  0  0  0  0  0  0
   46.0630   16.1740    3.6490 O   0  0  0  0  0  0  0  0  0  0  0  0
   47.2490   16.9320    3.4120 C   0  0  0  0  0  0  0  0  0  0  0  0
   47.0569   17.6950    2.6577 H   0  0  0  0  0  0  0  0  0  0  0  0
   48.0471   16.2740    3.0682 H   0  0  0  0  0  0  0  0  0  0  0  0
   47.6510   17.5920    4.7270 C   0  0  0  0  0  0  0  0  0  0  0  0
   46.8770   17.5250    5.6970 O   0  0  0  0  0  0  0  0  0  0  0  0
   48.7320   18.1660    4.7830 O   0  5  0  0  0  0  0  0  0  0  0  0
  1  2  1  0  0  0  0
  1  5  1  0  0  0  0
  2  3  2  0  0  0  0
  2  6  1  0  0  0  0
  3  4  1  0  0  0  0
  3 22  1  0  0  0  0
  4  5  2  0  0  0  0
  4 21  1  0  0  0  0
  5  9  1  0  0  0  0
  6  7  2  0  0  0  0
  6  8  1  0  0  0  0
  9 10  1  0  0  0  0
  9 19  2  0  0  0  0
 10 11  1  0  0  0  0
 10 12  2  0  0  0  0
 12 13  1  0  0  0  0
 12 15  1  0  0  0  0
 13 14  1  0  0  0  0
 15 16  1  0  0  0  0
 15 17  2  0  0  0  0
 17 18  1  0  0  0  0
 17 19  1  0  0  0  0
 19 20  1  0  0  0  0
 22 23  1  0  0  0  0
 23 24  1  0  0  0  0
 23 25  1  0  0  0  0
 23 26  1  0  0  0  0
 26 27  2  0  0  0  0
 26 28  1  0  0  0  0
M  CHG  1   8  -1
M  CHG  1  28  -1
M  END
$$$$
ptp1b_wilson_10
  MOE2024           3D
ptp1b_wilson_10
 31 32  0  0  0  0  0  0  0  0999 V2000
   44.6510   14.0740    0.6210 S   0  0  0  0  0  0  0  0  0  0  0  0
   44.7900   15.4820    1.5710 C   0  0  0  0  0  0  0  0  0  0  0  0
   45.6940   15.2460    2.6400 C   0  0  0  0  0  0  0  0  0  0  0  0
   46.2290   13.9270    2.6200 C   0  0  0  0  0  0  0  0  0  0  0  0
   45.7340   13.1350    1.5470 C   0  0  0  0  0  0  0  0  0  0  0  0
   44.0570   16.6430    1.2480 C   0  0  0  0  0  0  0  0  0  0  0  0
   43.4980   16.6800    0.1500 O   0  0  0  0  0  0  0  0  0  0  0  0
   43.9810   17.5810    2.0360 O   0  5  0  0  0  0  0  0  0  0  0  0
   46.0358   11.7600    1.1801 C   0  0  0  0  0  0  0  0  0  0  0  0
   47.3596   11.3204    1.0650 C   0  0  0  0  0  0  0  0  0  0  0  0
   48.1477   12.0024    1.2397 H   0  0  0  0  0  0  0  0  0  0  0  0
   47.6284    9.9990    0.7150 C   0  0  0  0  0  0  0  0  0  0  0  0
   48.9167    9.5243    0.6035 O   0  0  0  0  0  0  0  0  0  0  0  0
   50.1086   10.2990    0.8707 C   0  0  0  0  0  0  0  0  0  0  0  0
   50.9699    9.6492    0.7160 H   0  0  0  0  0  0  0  0  0  0  0  0
   50.0706   10.6426    1.9051 H   0  0  0  0  0  0  0  0  0  0  0  0
   50.1354   11.1392    0.1762 H   0  0  0  0  0  0  0  0  0  0  0  0
   46.5953    9.1022    0.4618 C   0  0  0  0  0  0  0  0  0  0  0  0
   46.8198    8.1021    0.1951 H   0  0  0  0  0  0  0  0  0  0  0  0
   45.2769    9.5347    0.5612 C   0  0  0  0  0  0  0  0  0  0  0  0
   44.4821    8.8609    0.3665 H   0  0  0  0  0  0  0  0  0  0  0  0
   44.9999   10.8520    0.9161 C   0  0  0  0  0  0  0  0  0  0  0  0
   43.9939   11.1780    0.9905 H   0  0  0  0  0  0  0  0  0  0  0  0
   47.4182   13.2742    3.9354 Br  0  0  0  0  0  0  0  0  0  0  0  0
   46.0630   16.1740    3.6490 O   0  0  0  0  0  0  0  0  0  0  0  0
   47.2490   16.9320    3.4120 C   0  0  0  0  0  0  0  0  0  0  0  0
   47.0569   17.6950    2.6577 H   0  0  0  0  0  0  0  0  0  0  0  0
   48.0471   16.2740    3.0682 H   0  0  0  0  0  0  0  0  0  0  0  0
   47.6510   17.5920    4.7270 C   0  0  0  0  0  0  0  0  0  0  0  0
   46.8770   17.5250    5.6970 O   0  0  0  0  0  0  0  0  0  0  0  0
   48.7320   18.1660    4.7830 O   0  5  0  0  0  0  0  0  0  0  0  0
  1  2  1  0  0  0  0
  1  5  1  0  0  0  0
  2  3  2  0  0  0  0
  2  6  1  0  0  0  0
  3  4  1  0  0  0  0
  3 25  1  0  0  0  0
  4  5  2  0  0  0  0
  4 24  1  0  0  0  0
  5  9  1  0  0  0  0
  6  7  2  0  0  0  0
  6  8  1  0  0  0  0
  9 10  1  0  0  0  0
  9 22  2  0  0  0  0
 10 11  1  0  0  0  0
 10 12  2  0  0  0  0
 12 13  1  0  0  0  0
 12 18  1  0  0  0  0
 13 14  1  0  0  0  0
 14 15  1  0  0  0  0
 14 16  1  0  0  0  0
 14 17  1  0  0  0  0
 18 19  1  0  0  0  0
 18 20  2  0  0  0  0
 20 21  1  0  0  0  0
 20 22  1  0  0  0  0
 22 23  1  0  0  0  0
 25 26  1  0  0  0  0
 26 27  1  0  0  0  0
 26 28  1  0  0  0  0
 26 29  1  0  0  0  0
 29 30  2  0  0  0  0
 29 31  1  0  0  0  0
M  CHG  1   8  -1
M  CHG  1  31  -1
M  END
$$$$
ptp1b_wilson_11
  MOE2024           3D
ptp1b_wilson_11
 37 38  0  0  0  0  0  0  0  0999 V2000
   44.6510   14.0740    0.6210 S   0  0  0  0  0  0  0  0  0  0  0  0
   44.7900   15.4820    1.5710 C   0  0  0  0  0  0  0  0  0  0  0  0
   45.6940   15.2460    2.6400 C   0  0  0  0  0  0  0  0  0  0  0  0
   46.2290   13.9270    2.6200 C   0  0  0  0  0  0  0  0  0  0  0  0
   45.7340   13.1350    1.5470 C   0  0  0  0  0  0  0  0  0  0  0  0
   44.0570   16.6430    1.2480 C   0  0  0  0  0  0  0  0  0  0  0  0
   43.4980   16.6800    0.1500 O   0  0  0  0  0  0  0  0  0  0  0  0
   43.9810   17.5810    2.0360 O   0  5  0  0  0  0  0  0  0  0  0  0
   46.0160   11.7110    1.1830 C   0  0  0  0  0  0  0  0  0  0  0  0
   47.2434   11.0682    1.3689 C   0  0  0  0  0  0  0  0  0  0  0  0
   48.0665   11.5932    1.7701 H   0  0  0  0  0  0  0  0  0  0  0  0
   47.3861    9.7331    1.0014 C   0  0  0  0  0  0  0  0  0  0  0  0
   46.3458    9.0194    0.4072 C   0  0  0  0  0  0  0  0  0  0  0  0
   46.4860    8.0059    0.1321 H   0  0  0  0  0  0  0  0  0  0  0  0
   45.1275    9.6506    0.1776 C   0  0  0  0  0  0  0  0  0  0  0  0
   44.3332    9.1212   -0.2839 H   0  0  0  0  0  0  0  0  0  0  0  0
   44.9490   10.9800    0.5490 C   0  0  0  0  0  0  0  0  0  0  0  0
   44.0127   11.4815    0.3532 H   0  0  0  0  0  0  0  0  0  0  0  0
   47.4770   13.3320    3.9450 Br  0  0  0  0  0  0  0  0  0  0  0  0
   46.0630   16.1740    3.6490 O   0  0  0  0  0  0  0  0  0  0  0  0
   47.2490   16.9320    3.4120 C   0  0  0  0  0  0  0  0  0  0  0  0
   47.0569   17.6950    2.6577 H   0  0  0  0  0  0  0  0  0  0  0  0
   48.0471   16.2740    3.0682 H   0  0  0  0  0  0  0  0  0  0  0  0
   47.6510   17.5920    4.7270 C   0  0  0  0  0  0  0  0  0  0  0  0
   46.8770   17.5250    5.6970 O   0  0  0  0  0  0  0  0  0  0  0  0
   48.7320   18.1660    4.7830 O   0  5  0  0  0  0  0  0  0  0  0  0
   48.6153    9.0841    1.2069 N   0  0  0  0  0  0  0  0  0  0  0  0
   49.1453    8.7461    0.3937 H   0  0  0  0  0  0  0  0  0  0  0  0
   49.1860    8.7880    2.4054 C   0  0  0  0  0  0  0  0  0  0  0  0
   48.4930    9.0682    3.7290 C   0  0  0  0  0  0  0  0  0  0  0  0
   49.2468    9.0755    4.5039 H   0  0  0  0  0  0  0  0  0  0  0  0
   47.9427    9.9947    3.6833 H   0  0  0  0  0  0  0  0  0  0  0  0
   47.5144    7.9054    4.0006 C   0  0  0  0  0  0  0  0  0  0  0  0
   46.7599    7.8829    3.2131 H   0  0  0  0  0  0  0  0  0  0  0  0
   47.0406    8.0768    4.9677 H   0  0  0  0  0  0  0  0  0  0  0  0
   48.0778    6.9705    4.0170 H   0  0  0  0  0  0  0  0  0  0  0  0
   50.2627    8.2404    2.3460 O   0  0  0  0  0  0  0  0  0  0  0  0
  1  2  1  0  0  0  0
  1  5  1  0  0  0  0
  2  3  2  0  0  0  0
  2  6  1  0  0  0  0
  3  4  1  0  0  0  0
  3 20  1  0  0  0  0
  4  5  2  0  0  0  0
  4 19  1  0  0  0  0
  5  9  1  0  0  0  0
  6  7  2  0  0  0  0
  6  8  1  0  0  0  0
  9 10  1  0  0  0  0
  9 17  2  0  0  0  0
 10 11  1  0  0  0  0
 10 12  2  0  0  0  0
 12 13  1  0  0  0  0
 12 27  1  0  0  0  0
 13 14  1  0  0  0  0
 13 15  2  0  0  0  0
 15 16  1  0  0  0  0
 15 17  1  0  0  0  0
 17 18  1  0  0  0  0
 20 21  1  0  0  0  0
 21 22  1  0  0  0  0
 21 23  1  0  0  0  0
 21 24  1  0  0  0  0
 24 25  2  0  0  0  0
 24 26  1  0  0  0  0
 27 28  1  0  0  0  0
 27 29  1  0  0  0  0
 29 30  1  0  0  0  0
 29 37  2  0  0  0  0
 30 31  1  0  0  0  0
 30 32  1  0  0  0  0
 30 33  1  0  0  0  0
 33 34  1  0  0  0  0
 33 35  1  0  0  0  0
 33 36  1  0  0  0  0
M  CHG  1   8  -1
M  CHG  1  26  -1
M  END
$$$$
ptp1b_wilson_12
  MOE2024           3D
ptp1b_wilson_12
 41 43  0  0  0  0  0  0  0  0999 V2000
   44.6510   14.0740    0.6210 S   0  0  0  0  0  0  0  0  0  0  0  0
   44.7900   15.4820    1.5710 C   0  0  0  0  0  0  0  0  0  0  0  0
   45.6940   15.2460    2.6400 C   0  0  0  0  0  0  0  0  0  0  0  0
   46.2290   13.9270    2.6200 C   0  0  0  0  0  0  0  0  0  0  0  0
   45.7340   13.1350    1.5470 C   0  0  0  0  0  0  0  0  0  0  0  0
   44.0570   16.6430    1.2480 C   0  0  0  0  0  0  0  0  0  0  0  0
   43.4980   16.6800    0.1500 O   0  0  0  0  0  0  0  0  0  0  0  0
   43.9810   17.5810    2.0360 O   0  5  0  0  0  0  0  0  0  0  0  0
   46.0160   11.7110    1.1830 C   0  0  0  0  0  0  0  0  0  0  0  0
   47.2434   11.0682    1.3689 C   0  0  0  0  0  0  0  0  0  0  0  0
   48.0665   11.5932    1.7701 H   0  0  0  0  0  0  0  0  0  0  0  0
   47.3944    9.7346    0.9810 C   0  0  0  0  0  0  0  0  0  0  0  0
   46.3456    9.0250    0.3931 C   0  0  0  0  0  0  0  0  0  0  0  0
   46.4786    8.0130    0.1122 H   0  0  0  0  0  0  0  0  0  0  0  0
   45.1253    9.6532    0.1745 C   0  0  0  0  0  0  0  0  0  0  0  0
   44.3283    9.1238   -0.2819 H   0  0  0  0  0  0  0  0  0  0  0  0
   44.9490   10.9800    0.5490 C   0  0  0  0  0  0  0  0  0  0  0  0
   44.0127   11.4815    0.3532 H   0  0  0  0  0  0  0  0  0  0  0  0
   47.4770   13.3320    3.9450 Br  0  0  0  0  0  0  0  0  0  0  0  0
   46.0630   16.1740    3.6490 O   0  0  0  0  0  0  0  0  0  0  0  0
   47.2490   16.9320    3.4120 C   0  0  0  0  0  0  0  0  0  0  0  0
   47.0569   17.6950    2.6577 H   0  0  0  0  0  0  0  0  0  0  0  0
   48.0471   16.2740    3.0682 H   0  0  0  0  0  0  0  0  0  0  0  0
   47.6510   17.5920    4.7270 C   0  0  0  0  0  0  0  0  0  0  0  0
   46.8770   17.5250    5.6970 O   0  0  0  0  0  0  0  0  0  0  0  0
   48.7320   18.1660    4.7830 O   0  5  0  0  0  0  0  0  0  0  0  0
   48.6248    9.0516    1.1176 N   0  0  0  0  0  0  0  0  0  0  0  0
   48.8259    8.3170    0.4315 H   0  0  0  0  0  0  0  0  0  0  0  0
   49.5340    9.1632    2.1495 C   0  0  0  0  0  0  0  0  0  0  0  0
   49.2527    9.8655    3.1096 O   0  0  0  0  0  0  0  0  0  0  0  0
   53.1329    6.8753    1.9364 C   0  0  0  0  0  0  0  0  0  0  0  0
   54.0235    6.3010    1.8909 H   0  0  0  0  0  0  0  0  0  0  0  0
   52.5946    7.2264    3.1704 C   0  0  0  0  0  0  0  0  0  0  0  0
   53.0757    6.9211    4.0650 H   0  0  0  0  0  0  0  0  0  0  0  0
   51.4271    7.9790    3.2317 C   0  0  0  0  0  0  0  0  0  0  0  0
   51.0209    8.2471    4.1748 H   0  0  0  0  0  0  0  0  0  0  0  0
   50.7755    8.3881    2.0595 C   0  0  0  0  0  0  0  0  0  0  0  0
   51.3391    8.0375    0.8206 C   0  0  0  0  0  0  0  0  0  0  0  0
   50.8861    8.3573   -0.0820 H   0  0  0  0  0  0  0  0  0  0  0  0
   52.5063    7.2832    0.7627 C   0  0  0  0  0  0  0  0  0  0  0  0
   52.9246    7.0218   -0.1765 H   0  0  0  0  0  0  0  0  0  0  0  0
  1  2  1  0  0  0  0
  1  5  1  0  0  0  0
  2  3  2  0  0  0  0
  2  6  1  0  0  0  0
  3  4  1  0  0  0  0
  3 20  1  0  0  0  0
  4  5  2  0  0  0  0
  4 19  1  0  0  0  0
  5  9  1  0  0  0  0
  6  7  2  0  0  0  0
  6  8  1  0  0  0  0
  9 10  1  0  0  0  0
  9 17  2  0  0  0  0
 10 11  1  0  0  0  0
 10 12  2  0  0  0  0
 12 13  1  0  0  0  0
 12 27  1  0  0  0  0
 13 14  1  0  0  0  0
 13 15  2  0  0  0  0
 15 16  1  0  0  0  0
 15 17  1  0  0  0  0
 17 18  1  0  0  0  0
 20 21  1  0  0  0  0
 21 22  1  0  0  0  0
 21 23  1  0  0  0  0
 21 24  1  0  0  0  0
 24 25  2  0  0  0  0
 24 26  1  0  0  0  0
 27 28  1  0  0  0  0
 27 29  1  0  0  0  0
 29 30  2  0  0  0  0
 29 37  1  0  0  0  0
 31 32  1  0  0  0  0
 31 33  1  0  0  0  0
 31 40  2  0  0  0  0
 33 34  1  0  0  0  0
 33 35  2  0  0  0  0
 35 36  1  0  0  0  0
 35 37  1  0  0  0  0
 37 38  2  0  0  0  0
 38 39  1  0  0  0  0
 38 40  1  0  0  0  0
 40 41  1  0  0  0  0
M  CHG  1   8  -1
M  CHG  1  26  -1
M  END
$$$$
ptp1b_wilson_13
  MOE2024           3D
ptp1b_wilson_13
 42 43  0  0  0  0  0  0  0  0999 V2000
   44.6510   14.0740    0.6210 S   0  0  0  0  0  0  0  0  0  0  0  0
   44.7900   15.4820    1.5710 C   0  0  0  0  0  0  0  0  0  0  0  0
   45.6940   15.2460    2.6400 C   0  0  0  0  0  0  0  0  0  0  0  0
   46.2290   13.9270    2.6200 C   0  0  0  0  0  0  0  0  0  0  0  0
   45.7340   13.1350    1.5470 C   0  0  0  0  0  0  0  0  0  0  0  0
   44.0570   16.6430    1.2480 C   0  0  0  0  0  0  0  0  0  0  0  0
   43.4980   16.6800    0.1500 O   0  0  0  0  0  0  0  0  0  0  0  0
   43.9810   17.5810    2.0360 O   0  5  0  0  0  0  0  0  0  0  0  0
   46.0160   11.7110    1.1830 C   0  0  0  0  0  0  0  0  0  0  0  0
   47.2437   11.0703    1.3695 C   0  0  0  0  0  0  0  0  0  0  0  0
   48.0658   11.5979    1.7690 H   0  0  0  0  0  0  0  0  0  0  0  0
   47.3894    9.7348    1.0062 C   0  0  0  0  0  0  0  0  0  0  0  0
   46.3449    9.0196    0.4139 C   0  0  0  0  0  0  0  0  0  0  0  0
   46.4888    8.0089    0.1273 H   0  0  0  0  0  0  0  0  0  0  0  0
   45.1269    9.6497    0.1824 C   0  0  0  0  0  0  0  0  0  0  0  0
   44.3338    9.1198   -0.2810 H   0  0  0  0  0  0  0  0  0  0  0  0
   44.9490   10.9800    0.5490 C   0  0  0  0  0  0  0  0  0  0  0  0
   44.0127   11.4815    0.3532 H   0  0  0  0  0  0  0  0  0  0  0  0
   47.4770   13.3320    3.9450 Br  0  0  0  0  0  0  0  0  0  0  0  0
   46.0630   16.1740    3.6490 O   0  0  0  0  0  0  0  0  0  0  0  0
   47.2490   16.9320    3.4120 C   0  0  0  0  0  0  0  0  0  0  0  0
   47.0569   17.6950    2.6577 H   0  0  0  0  0  0  0  0  0  0  0  0
   48.0471   16.2740    3.0682 H   0  0  0  0  0  0  0  0  0  0  0  0
   47.6510   17.5920    4.7270 C   0  0  0  0  0  0  0  0  0  0  0  0
   46.8770   17.5250    5.6970 O   0  0  0  0  0  0  0  0  0  0  0  0
   48.7320   18.1660    4.7830 O   0  5  0  0  0  0  0  0  0  0  0  0
   48.6345    9.1155    1.2286 N   0  0  0  0  0  0  0  0  0  0  0  0
   49.4966    9.5815    0.9248 H   0  0  0  0  0  0  0  0  0  0  0  0
   48.8648    7.9497    1.8900 C   0  0  0  0  0  0  0  0  0  0  0  0
   47.7945    7.3949    2.5173 N   0  0  0  0  0  0  0  0  0  0  0  0
   47.7746    6.2042    3.3583 C   0  0  0  0  0  0  0  0  0  0  0  0
   48.6688    6.4423    4.5755 C   0  0  0  0  0  0  0  0  0  0  0  0
   49.7079    6.5643    4.2699 H   0  0  0  0  0  0  0  0  0  0  0  0
   48.6007    5.5888    5.2491 H   0  0  0  0  0  0  0  0  0  0  0  0
   48.3427    7.3391    5.1019 H   0  0  0  0  0  0  0  0  0  0  0  0
   48.2141    4.9964    2.5294 C   0  0  0  0  0  0  0  0  0  0  0  0
   49.2554    5.0971    2.2237 H   0  0  0  0  0  0  0  0  0  0  0  0
   47.5873    4.9118    1.6422 H   0  0  0  0  0  0  0  0  0  0  0  0
   48.1127    4.0901    3.1253 H   0  0  0  0  0  0  0  0  0  0  0  0
   46.7610    6.0112    3.7175 H   0  0  0  0  0  0  0  0  0  0  0  0
   46.9377    7.9578    2.4792 H   0  0  0  0  0  0  0  0  0  0  0  0
   49.9953    7.4917    1.9042 O   0  0  0  0  0  0  0  0  0  0  0  0
  1  2  1  0  0  0  0
  1  5  1  0  0  0  0
  2  3  2  0  0  0  0
  2  6  1  0  0  0  0
  3  4  1  0  0  0  0
  3 20  1  0  0  0  0
  4  5  2  0  0  0  0
  4 19  1  0  0  0  0
  5  9  1  0  0  0  0
  6  7  2  0  0  0  0
  6  8  1  0  0  0  0
  9 10  1  0  0  0  0
  9 17  2  0  0  0  0
 10 11  1  0  0  0  0
 10 12  2  0  0  0  0
 12 13  1  0  0  0  0
 12 27  1  0  0  0  0
 13 14  1  0  0  0  0
 13 15  2  0  0  0  0
 15 16  1  0  0  0  0
 15 17  1  0  0  0  0
 17 18  1  0  0  0  0
 20 21  1  0  0  0  0
 21 22  1  0  0  0  0
 21 23  1  0  0  0  0
 21 24  1  0  0  0  0
 24 25  2  0  0  0  0
 24 26  1  0  0  0  0
 27 28  1  0  0  0  0
 27 29  1  0  0  0  0
 29 30  1  0  0  0  0
 29 42  2  0  0  0  0
 30 31  1  0  0  0  0
 30 41  1  0  0  0  0
 31 32  1  0  0  0  0
 31 36  1  0  0  0  0
 31 40  1  0  0  0  0
 32 33  1  0  0  0  0
 32 34  1  0  0  0  0
 32 35  1  0  0  0  0
 36 37  1  0  0  0  0
 36 38  1  0  0  0  0
 36 39  1  0  0  0  0
M  CHG  1   8  -1
M  CHG  1  26  -1
M  END
$$$$
ptp1b_wilson_14
  MOE2024           3D
ptp1b_wilson_14
 35 36  0  0  0  0  0  0  0  0999 V2000
   44.6510   14.0740    0.6210 S   0  0  0  0  0  0  0  0  0  0  0  0
   44.7900   15.4820    1.5710 C   0  0  0  0  0  0  0  0  0  0  0  0
   45.6940   15.2460    2.6400 C   0  0  0  0  0  0  0  0  0  0  0  0
   46.2290   13.9270    2.6200 C   0  0  0  0  0  0  0  0  0  0  0  0
   45.7340   13.1350    1.5470 C   0  0  0  0  0  0  0  0  0  0  0  0
   44.0570   16.6430    1.2480 C   0  0  0  0  0  0  0  0  0  0  0  0
   43.4980   16.6800    0.1500 O   0  0  0  0  0  0  0  0  0  0  0  0
   43.9810   17.5810    2.0360 O   0  5  0  0  0  0  0  0  0  0  0  0
   46.0160   11.7110    1.1830 C   0  0  0  0  0  0  0  0  0  0  0  0
   47.2437   11.0703    1.3695 C   0  0  0  0  0  0  0  0  0  0  0  0
   48.0658   11.5979    1.7690 H   0  0  0  0  0  0  0  0  0  0  0  0
   47.3903    9.7328    1.0096 C   0  0  0  0  0  0  0  0  0  0  0  0
   46.3435    9.0186    0.4188 C   0  0  0  0  0  0  0  0  0  0  0  0
   46.4784    8.0069    0.1364 H   0  0  0  0  0  0  0  0  0  0  0  0
   45.1262    9.6494    0.1857 C   0  0  0  0  0  0  0  0  0  0  0  0
   44.3323    9.1174   -0.2733 H   0  0  0  0  0  0  0  0  0  0  0  0
   44.9490   10.9800    0.5490 C   0  0  0  0  0  0  0  0  0  0  0  0
   44.0127   11.4815    0.3532 H   0  0  0  0  0  0  0  0  0  0  0  0
   47.4770   13.3320    3.9450 Br  0  0  0  0  0  0  0  0  0  0  0  0
   46.0630   16.1740    3.6490 O   0  0  0  0  0  0  0  0  0  0  0  0
   47.2490   16.9320    3.4120 C   0  0  0  0  0  0  0  0  0  0  0  0
   47.0569   17.6950    2.6577 H   0  0  0  0  0  0  0  0  0  0  0  0
   48.0471   16.2740    3.0682 H   0  0  0  0  0  0  0  0  0  0  0  0
   47.6510   17.5920    4.7270 C   0  0  0  0  0  0  0  0  0  0  0  0
   46.8770   17.5250    5.6970 O   0  0  0  0  0  0  0  0  0  0  0  0
   48.7320   18.1660    4.7830 O   0  5  0  0  0  0  0  0  0  0  0  0
   48.6478    9.1325    1.2315 N   0  0  0  0  0  0  0  0  0  0  0  0
   49.4977    9.6919    1.1083 H   0  0  0  0  0  0  0  0  0  0  0  0
   48.8949    7.8832    1.7077 C   0  0  0  0  0  0  0  0  0  0  0  0
   47.8413    7.1164    2.0559 O   0  0  0  0  0  0  0  0  0  0  0  0
   48.0461    5.7850    2.5936 C   0  0  0  0  0  0  0  0  0  0  0  0
   47.0688    5.3563    2.8158 H   0  0  0  0  0  0  0  0  0  0  0  0
   48.6441    5.8688    3.5025 H   0  0  0  0  0  0  0  0  0  0  0  0
   48.5675    5.1869    1.8444 H   0  0  0  0  0  0  0  0  0  0  0  0
   50.0465    7.5015    1.8237 O   0  0  0  0  0  0  0  0  0  0  0  0
  1  2  1  0  0  0  0
  1  5  1  0  0  0  0
  2  3  2  0  0  0  0
  2  6  1  0  0  0  0
  3  4  1  0  0  0  0
  3 20  1  0  0  0  0
  4  5  2  0  0  0  0
  4 19  1  0  0  0  0
  5  9  1  0  0  0  0
  6  7  2  0  0  0  0
  6  8  1  0  0  0  0
  9 10  1  0  0  0  0
  9 17  2  0  0  0  0
 10 11  1  0  0  0  0
 10 12  2  0  0  0  0
 12 13  1  0  0  0  0
 12 27  1  0  0  0  0
 13 14  1  0  0  0  0
 13 15  2  0  0  0  0
 15 16  1  0  0  0  0
 15 17  1  0  0  0  0
 17 18  1  0  0  0  0
 20 21  1  0  0  0  0
 21 22  1  0  0  0  0
 21 23  1  0  0  0  0
 21 24  1  0  0  0  0
 24 25  2  0  0  0  0
 24 26  1  0  0  0  0
 27 28  1  0  0  0  0
 27 29  1  0  0  0  0
 29 30  1  0  0  0  0
 29 35  2  0  0  0  0
 30 31  1  0  0  0  0
 31 32  1  0  0  0  0
 31 33  1  0  0  0  0
 31 34  1  0  0  0  0
M  CHG  1   8  -1
M  CHG  1  26  -1
M  END
$$$$
ptp1b_wilson_15
  MOE2024           3D
ptp1b_wilson_15
 42 44  0  0  0  0  0  0  0  0999 V2000
   44.6510   14.0740    0.6210 S   0  0  0  0  0  0  0  0  0  0  0  0
   44.7900   15.4820    1.5710 C   0  0  0  0  0  0  0  0  0  0  0  0
   45.6940   15.2460    2.6400 C   0  0  0  0  0  0  0  0  0  0  0  0
   46.2290   13.9270    2.6200 C   0  0  0  0  0  0  0  0  0  0  0  0
   45.7340   13.1350    1.5470 C   0  0  0  0  0  0  0  0  0  0  0  0
   44.0570   16.6430    1.2480 C   0  0  0  0  0  0  0  0  0  0  0  0
   43.4980   16.6800    0.1500 O   0  0  0  0  0  0  0  0  0  0  0  0
   43.9810   17.5810    2.0360 O   0  5  0  0  0  0  0  0  0  0  0  0
   46.0160   11.7110    1.1830 C   0  0  0  0  0  0  0  0  0  0  0  0
   47.2437   11.0703    1.3695 C   0  0  0  0  0  0  0  0  0  0  0  0
   48.0658   11.5979    1.7690 H   0  0  0  0  0  0  0  0  0  0  0  0
   47.3963    9.7313    1.0107 C   0  0  0  0  0  0  0  0  0  0  0  0
   46.3495    9.0240    0.4056 C   0  0  0  0  0  0  0  0  0  0  0  0
   46.4769    8.0158    0.1092 H   0  0  0  0  0  0  0  0  0  0  0  0
   45.1315    9.6538    0.1762 C   0  0  0  0  0  0  0  0  0  0  0  0
   44.3404    9.1227   -0.2887 H   0  0  0  0  0  0  0  0  0  0  0  0
   44.9490   10.9800    0.5490 C   0  0  0  0  0  0  0  0  0  0  0  0
   44.0127   11.4815    0.3532 H   0  0  0  0  0  0  0  0  0  0  0  0
   47.4770   13.3320    3.9450 Br  0  0  0  0  0  0  0  0  0  0  0  0
   46.0630   16.1740    3.6490 O   0  0  0  0  0  0  0  0  0  0  0  0
   47.2490   16.9320    3.4120 C   0  0  0  0  0  0  0  0  0  0  0  0
   47.0569   17.6950    2.6577 H   0  0  0  0  0  0  0  0  0  0  0  0
   48.0471   16.2740    3.0682 H   0  0  0  0  0  0  0  0  0  0  0  0
   47.6510   17.5920    4.7270 C   0  0  0  0  0  0  0  0  0  0  0  0
   46.8770   17.5250    5.6970 O   0  0  0  0  0  0  0  0  0  0  0  0
   48.7320   18.1660    4.7830 O   0  5  0  0  0  0  0  0  0  0  0  0
   48.6416    9.1419    1.2638 N   0  0  0  0  0  0  0  0  0  0  0  0
   49.1994    9.6758    1.9312 H   0  0  0  0  0  0  0  0  0  0  0  0
   48.6842    7.5730    1.7984 S   0  0  0  0  0  0  0  0  0  0  0  0
   47.7681    7.4431    2.8724 O   0  0  0  0  0  0  0  0  0  0  0  0
   48.4897    6.7078    0.6915 O   0  0  0  0  0  0  0  0  0  0  0  0
   52.9507    7.0096    3.3669 C   0  0  0  0  0  0  0  0  0  0  0  0
   54.2109    6.8460    3.8286 F   0  0  0  0  0  0  0  0  0  0  0  0
   51.9370    7.2932    4.2706 C   0  0  0  0  0  0  0  0  0  0  0  0
   52.1525    7.3730    5.3055 H   0  0  0  0  0  0  0  0  0  0  0  0
   50.6401    7.4639    3.7914 C   0  0  0  0  0  0  0  0  0  0  0  0
   49.8493    7.6708    4.4701 H   0  0  0  0  0  0  0  0  0  0  0  0
   50.3669    7.3567    2.4194 C   0  0  0  0  0  0  0  0  0  0  0  0
   51.4131    7.0582    1.5343 C   0  0  0  0  0  0  0  0  0  0  0  0
   51.2080    6.9601    0.4963 H   0  0  0  0  0  0  0  0  0  0  0  0
   52.7127    6.8866    2.0057 C   0  0  0  0  0  0  0  0  0  0  0  0
   53.5093    6.6627    1.3431 H   0  0  0  0  0  0  0  0  0  0  0  0
  1  2  1  0  0  0  0
  1  5  1  0  0  0  0
  2  3  2  0  0  0  0
  2  6  1  0  0  0  0
  3  4  1  0  0  0  0
  3 20  1  0  0  0  0
  4  5  2  0  0  0  0
  4 19  1  0  0  0  0
  5  9  1  0  0  0  0
  6  7  2  0  0  0  0
  6  8  1  0  0  0  0
  9 10  1  0  0  0  0
  9 17  2  0  0  0  0
 10 11  1  0  0  0  0
 10 12  2  0  0  0  0
 12 13  1  0  0  0  0
 12 27  1  0  0  0  0
 13 14  1  0  0  0  0
 13 15  2  0  0  0  0
 15 16  1  0  0  0  0
 15 17  1  0  0  0  0
 17 18  1  0  0  0  0
 20 21  1  0  0  0  0
 21 22  1  0  0  0  0
 21 23  1  0  0  0  0
 21 24  1  0  0  0  0
 24 25  2  0  0  0  0
 24 26  1  0  0  0  0
 27 28  1  0  0  0  0
 27 29  1  0  0  0  0
 29 30  2  0  0  0  0
 29 31  2  0  0  0  0
 29 38  1  0  0  0  0
 32 33  1  0  0  0  0
 32 34  1  0  0  0  0
 32 41  2  0  0  0  0
 34 35  1  0  0  0  0
 34 36  2  0  0  0  0
 36 37  1  0  0  0  0
 36 38  1  0  0  0  0
 38 39  2  0  0  0  0
 39 40  1  0  0  0  0
 39 41  1  0  0  0  0
 41 42  1  0  0  0  0
M  CHG  1   8  -1
M  CHG  1  26  -1
M  END
$$$$
ptp1b_wilson_16_2qbr
  MOE2024           3D
ptp1b_wilson_16_2qbr
 42 44  0  0  0  0  0  0  0  0999 V2000
   44.6510   14.0740    0.6210 S   0  0  0  0  0  0  0  0  0  0  0  0
   44.7900   15.4820    1.5710 C   0  0  0  0  0  0  0  0  0  0  0  0
   45.6940   15.2460    2.6400 C   0  0  0  0  0  0  0  0  0  0  0  0
   46.2290   13.9270    2.6200 C   0  0  0  0  0  0  0  0  0  0  0  0
   45.7340   13.1350    1.5470 C   0  0  0  0  0  0  0  0  0  0  0  0
   44.0570   16.6430    1.2480 C   0  0  0  0  0  0  0  0  0  0  0  0
   43.4980   16.6800    0.1500 O   0  0  0  0  0  0  0  0  0  0  0  0
   43.9810   17.5810    2.0360 O   0  5  0  0  0  0  0  0  0  0  0  0
   46.0160   11.7110    1.1830 C   0  0  0  0  0  0  0  0  0  0  0  0
   47.2437   11.0703    1.3695 C   0  0  0  0  0  0  0  0  0  0  0  0
   48.0658   11.5979    1.7690 H   0  0  0  0  0  0  0  0  0  0  0  0
   47.4018    9.7381    0.9952 C   0  0  0  0  0  0  0  0  0  0  0  0
   46.3464    9.0196    0.4225 C   0  0  0  0  0  0  0  0  0  0  0  0
   46.4725    8.0003    0.1698 H   0  0  0  0  0  0  0  0  0  0  0  0
   45.1277    9.6482    0.1909 C   0  0  0  0  0  0  0  0  0  0  0  0
   44.3315    9.1123   -0.2584 H   0  0  0  0  0  0  0  0  0  0  0  0
   44.9490   10.9800    0.5490 C   0  0  0  0  0  0  0  0  0  0  0  0
   44.0127   11.4815    0.3532 H   0  0  0  0  0  0  0  0  0  0  0  0
   47.4770   13.3320    3.9450 Br  0  0  0  0  0  0  0  0  0  0  0  0
   46.0630   16.1740    3.6490 O   0  0  0  0  0  0  0  0  0  0  0  0
   47.2490   16.9320    3.4120 C   0  0  0  0  0  0  0  0  0  0  0  0
   47.0569   17.6950    2.6577 H   0  0  0  0  0  0  0  0  0  0  0  0
   48.0471   16.2740    3.0682 H   0  0  0  0  0  0  0  0  0  0  0  0
   47.6510   17.5920    4.7270 C   0  0  0  0  0  0  0  0  0  0  0  0
   46.8770   17.5250    5.6970 O   0  0  0  0  0  0  0  0  0  0  0  0
   48.7320   18.1660    4.7830 O   0  5  0  0  0  0  0  0  0  0  0  0
   48.6445    9.1401    1.2123 N   0  0  0  0  0  0  0  0  0  0  0  0
   49.3827    9.8038    1.4944 H   0  0  0  0  0  0  0  0  0  0  0  0
   49.1611    8.2253    0.2047 C   0  0  0  0  0  0  0  0  0  0  0  0
   48.8656    8.5464   -0.7862 H   0  0  0  0  0  0  0  0  0  0  0  0
   48.8597    7.2118    0.4353 H   0  0  0  0  0  0  0  0  0  0  0  0
   53.4294    8.6113    0.6309 C   0  0  0  0  0  0  0  0  0  0  0  0
   54.4802    8.7048    0.7358 H   0  0  0  0  0  0  0  0  0  0  0  0
   52.7141    7.7874    1.4940 C   0  0  0  0  0  0  0  0  0  0  0  0
   53.2195    7.2546    2.2585 H   0  0  0  0  0  0  0  0  0  0  0  0
   51.3348    7.6641    1.3557 C   0  0  0  0  0  0  0  0  0  0  0  0
   50.7929    7.0413    2.0214 H   0  0  0  0  0  0  0  0  0  0  0  0
   50.6621    8.3599    0.3512 C   0  0  0  0  0  0  0  0  0  0  0  0
   51.3842    9.1905   -0.5063 C   0  0  0  0  0  0  0  0  0  0  0  0
   50.8840    9.7331   -1.2675 H   0  0  0  0  0  0  0  0  0  0  0  0
   52.7637    9.3139   -0.3682 C   0  0  0  0  0  0  0  0  0  0  0  0
   53.3077    9.9442   -1.0244 H   0  0  0  0  0  0  0  0  0  0  0  0
  1  2  1  0  0  0  0
  1  5  1  0  0  0  0
  2  3  2  0  0  0  0
  2  6  1  0  0  0  0
  3  4  1  0  0  0  0
  3 20  1  0  0  0  0
  4  5  2  0  0  0  0
  4 19  1  0  0  0  0
  5  9  1  0  0  0  0
  6  7  2  0  0  0  0
  6  8  1  0  0  0  0
  9 10  1  0  0  0  0
  9 17  2  0  0  0  0
 10 11  1  0  0  0  0
 10 12  2  0  0  0  0
 12 13  1  0  0  0  0
 12 27  1  0  0  0  0
 13 14  1  0  0  0  0
 13 15  2  0  0  0  0
 15 16  1  0  0  0  0
 15 17  1  0  0  0  0
 17 18  1  0  0  0  0
 20 21  1  0  0  0  0
 21 22  1  0  0  0  0
 21 23  1  0  0  0  0
 21 24  1  0  0  0  0
 24 25  2  0  0  0  0
 24 26  1  0  0  0  0
 27 28  1  0  0  0  0
 27 29  1  0  0  0  0
 29 30  1  0  0  0  0
 29 31  1  0  0  0  0
 29 38  1  0  0  0  0
 32 33  1  0  0  0  0
 32 34  1  0  0  0  0
 32 41  2  0  0  0  0
 34 35  1  0  0  0  0
 34 36  2  0  0  0  0
 36 37  1  0  0  0  0
 36 38  1  0  0  0  0
 38 39  2  0  0  0  0
 39 40  1  0  0  0  0
 39 41  1  0  0  0  0
 41 42  1  0  0  0  0
M  CHG  1   8  -1
M  CHG  1  26  -1
M  END
$$$$
ptp1b_wilson_17
  MOE2024           3D
ptp1b_wilson_17
 41 43  0  0  0  0  0  0  0  0999 V2000
   44.6510   14.0740    0.6210 S   0  0  0  0  0  0  0  0  0  0  0  0
   44.7900   15.4820    1.5710 C   0  0  0  0  0  0  0  0  0  0  0  0
   45.6940   15.2460    2.6400 C   0  0  0  0  0  0  0  0  0  0  0  0
   46.2290   13.9270    2.6200 C   0  0  0  0  0  0  0  0  0  0  0  0
   45.7340   13.1350    1.5470 C   0  0  0  0  0  0  0  0  0  0  0  0
   44.0570   16.6430    1.2480 C   0  0  0  0  0  0  0  0  0  0  0  0
   43.4980   16.6800    0.1500 O   0  0  0  0  0  0  0  0  0  0  0  0
   43.9810   17.5810    2.0360 O   0  5  0  0  0  0  0  0  0  0  0  0
   46.0160   11.7110    1.1830 C   0  0  0  0  0  0  0  0  0  0  0  0
   47.2437   11.0703    1.3695 C   0  0  0  0  0  0  0  0  0  0  0  0
   48.0658   11.5979    1.7690 H   0  0  0  0  0  0  0  0  0  0  0  0
   47.3982    9.7406    0.9987 C   0  0  0  0  0  0  0  0  0  0  0  0
   46.3509    9.0206    0.4159 C   0  0  0  0  0  0  0  0  0  0  0  0
   46.4772    8.0072    0.1408 H   0  0  0  0  0  0  0  0  0  0  0  0
   45.1297    9.6494    0.1857 C   0  0  0  0  0  0  0  0  0  0  0  0
   44.3357    9.1157   -0.2708 H   0  0  0  0  0  0  0  0  0  0  0  0
   44.9490   10.9800    0.5490 C   0  0  0  0  0  0  0  0  0  0  0  0
   44.0127   11.4815    0.3532 H   0  0  0  0  0  0  0  0  0  0  0  0
   47.4770   13.3320    3.9450 Br  0  0  0  0  0  0  0  0  0  0  0  0
   46.0630   16.1740    3.6490 O   0  0  0  0  0  0  0  0  0  0  0  0
   47.2490   16.9320    3.4120 C   0  0  0  0  0  0  0  0  0  0  0  0
   47.0569   17.6950    2.6577 H   0  0  0  0  0  0  0  0  0  0  0  0
   48.0471   16.2740    3.0682 H   0  0  0  0  0  0  0  0  0  0  0  0
   47.6510   17.5920    4.7270 C   0  0  0  0  0  0  0  0  0  0  0  0
   46.8770   17.5250    5.6970 O   0  0  0  0  0  0  0  0  0  0  0  0
   48.7320   18.1660    4.7830 O   0  5  0  0  0  0  0  0  0  0  0  0
   48.6323    9.1783    1.2260 O   0  0  0  0  0  0  0  0  0  0  0  0
   49.0091    7.8284    0.8670 C   0  0  0  0  0  0  0  0  0  0  0  0
   48.9236    7.7019   -0.2036 H   0  0  0  0  0  0  0  0  0  0  0  0
   48.4123    7.1277    1.4344 H   0  0  0  0  0  0  0  0  0  0  0  0
   53.1609    7.4418    1.9579 C   0  0  0  0  0  0  0  0  0  0  0  0
   54.1827    7.3457    2.2230 H   0  0  0  0  0  0  0  0  0  0  0  0
   52.2083    6.6141    2.5432 C   0  0  0  0  0  0  0  0  0  0  0  0
   52.5049    5.8870    3.2551 H   0  0  0  0  0  0  0  0  0  0  0  0
   50.8663    6.7413    2.1960 C   0  0  0  0  0  0  0  0  0  0  0  0
   50.1482    6.1075    2.6498 H   0  0  0  0  0  0  0  0  0  0  0  0
   50.4680    7.6965    1.2602 C   0  0  0  0  0  0  0  0  0  0  0  0
   51.4285    8.5244    0.6790 C   0  0  0  0  0  0  0  0  0  0  0  0
   51.1351    9.2588   -0.0275 H   0  0  0  0  0  0  0  0  0  0  0  0
   52.7702    8.3980    1.0263 C   0  0  0  0  0  0  0  0  0  0  0  0
   53.4939    9.0323    0.5821 H   0  0  0  0  0  0  0  0  0  0  0  0
  1  2  1  0  0  0  0
  1  5  1  0  0  0  0
  2  3  2  0  0  0  0
  2  6  1  0  0  0  0
  3  4  1  0  0  0  0
  3 20  1  0  0  0  0
  4  5  2  0  0  0  0
  4 19  1  0  0  0  0
  5  9  1  0  0  0  0
  6  7  2  0  0  0  0
  6  8  1  0  0  0  0
  9 10  1  0  0  0  0
  9 17  2  0  0  0  0
 10 11  1  0  0  0  0
 10 12  2  0  0  0  0
 12 13  1  0  0  0  0
 12 27  1  0  0  0  0
 13 14  1  0  0  0  0
 13 15  2  0  0  0  0
 15 16  1  0  0  0  0
 15 17  1  0  0  0  0
 17 18  1  0  0  0  0
 20 21  1  0  0  0  0
 21 22  1  0  0  0  0
 21 23  1  0  0  0  0
 21 24  1  0  0  0  0
 24 25  2  0  0  0  0
 24 26  1  0  0  0  0
 27 28  1  0  0  0  0
 28 29  1  0  0  0  0
 28 30  1  0  0  0  0
 28 37  1  0  0  0  0
 31 32  1  0  0  0  0
 31 33  1  0  0  0  0
 31 40  2  0  0  0  0
 33 34  1  0  0  0  0
 33 35  2  0  0  0  0
 35 36  1  0  0  0  0
 35 37  1  0  0  0  0
 37 38  2  0  0  0  0
 38 39  1  0  0  0  0
 38 40  1  0  0  0  0
 40 41  1  0  0  0  0
M  CHG  1   8  -1
M  CHG  1  26  -1
M  END
$$$$
ptp1b_wilson_18
  MOE2024           3D
ptp1b_wilson_18
 48 50  0  0  0  0  0  0  0  0999 V2000
   44.6510   14.0740    0.6210 S   0  0  0  0  0  0  0  0  0  0  0  0
   44.7900   15.4820    1.5710 C   0  0  0  0  0  0  0  0  0  0  0  0
   45.6940   15.2460    2.6400 C   0  0  0  0  0  0  0  0  0  0  0  0
   46.2290   13.9270    2.6200 C   0  0  0  0  0  0  0  0  0  0  0  0
   45.7340   13.1350    1.5470 C   0  0  0  0  0  0  0  0  0  0  0  0
   44.0570   16.6430    1.2480 C   0  0  0  0  0  0  0  0  0  0  0  0
   43.4980   16.6800    0.1500 O   0  0  0  0  0  0  0  0  0  0  0  0
   43.9810   17.5810    2.0360 O   0  5  0  0  0  0  0  0  0  0  0  0
   46.0160   11.7110    1.1830 C   0  0  0  0  0  0  0  0  0  0  0  0
   47.2437   11.0703    1.3695 C   0  0  0  0  0  0  0  0  0  0  0  0
   48.0658   11.5979    1.7690 H   0  0  0  0  0  0  0  0  0  0  0  0
   47.3978    9.7329    1.0119 C   0  0  0  0  0  0  0  0  0  0  0  0
   48.6372    9.1308    1.2484 N   0  0  0  0  0  0  0  0  0  0  0  0
   49.3102    9.7531    1.7195 H   0  0  0  0  0  0  0  0  0  0  0  0
   48.6844    7.7614    1.7804 C   0  0  0  0  0  0  0  0  0  0  0  0
   49.1550    7.7513    2.7651 H   0  0  0  0  0  0  0  0  0  0  0  0
   47.6844    7.3348    1.8713 H   0  0  0  0  0  0  0  0  0  0  0  0
   46.3518    9.0239    0.4113 C   0  0  0  0  0  0  0  0  0  0  0  0
   46.4961    8.0189    0.1141 H   0  0  0  0  0  0  0  0  0  0  0  0
   45.1326    9.6519    0.1796 C   0  0  0  0  0  0  0  0  0  0  0  0
   44.3433    9.1207   -0.2869 H   0  0  0  0  0  0  0  0  0  0  0  0
   44.9490   10.9800    0.5490 C   0  0  0  0  0  0  0  0  0  0  0  0
   44.0127   11.4815    0.3532 H   0  0  0  0  0  0  0  0  0  0  0  0
   47.4770   13.3320    3.9450 Br  0  0  0  0  0  0  0  0  0  0  0  0
   46.0630   16.1740    3.6490 O   0  0  0  0  0  0  0  0  0  0  0  0
   47.2490   16.9320    3.4120 C   0  0  0  0  0  0  0  0  0  0  0  0
   47.0569   17.6950    2.6577 H   0  0  0  0  0  0  0  0  0  0  0  0
   48.0471   16.2740    3.0682 H   0  0  0  0  0  0  0  0  0  0  0  0
   47.6510   17.5920    4.7270 C   0  0  0  0  0  0  0  0  0  0  0  0
   46.8770   17.5250    5.6970 O   0  0  0  0  0  0  0  0  0  0  0  0
   48.7320   18.1660    4.7830 O   0  5  0  0  0  0  0  0  0  0  0  0
   51.6974    4.9914    0.1821 C   0  0  0  0  0  0  0  0  0  0  0  0
   52.2473    4.3918   -0.5452 H   0  0  0  0  0  0  0  0  0  0  0  0
   52.1296    4.8186    1.1695 H   0  0  0  0  0  0  0  0  0  0  0  0
   50.2241    4.5621    0.1882 C   0  0  0  0  0  0  0  0  0  0  0  0
   50.1524    3.5180    0.4973 H   0  0  0  0  0  0  0  0  0  0  0  0
   49.8180    4.6519   -0.8212 H   0  0  0  0  0  0  0  0  0  0  0  0
   49.4020    5.4368    1.1461 C   0  0  0  0  0  0  0  0  0  0  0  0
   49.7573    5.2768    2.1659 H   0  0  0  0  0  0  0  0  0  0  0  0
   48.3558    5.1306    1.0925 H   0  0  0  0  0  0  0  0  0  0  0  0
   49.5202    6.9317    0.7885 C   0  0  0  0  0  0  0  0  0  0  0  0
   49.1074    7.0801   -0.2117 H   0  0  0  0  0  0  0  0  0  0  0  0
   51.0059    7.3523    0.7779 C   0  0  0  0  0  0  0  0  0  0  0  0
   51.4166    7.2676    1.7852 H   0  0  0  0  0  0  0  0  0  0  0  0
   51.0887    8.3919    0.4572 H   0  0  0  0  0  0  0  0  0  0  0  0
   51.8300    6.4770   -0.1778 C   0  0  0  0  0  0  0  0  0  0  0  0
   52.8796    6.7711   -0.1253 H   0  0  0  0  0  0  0  0  0  0  0  0
   51.4793    6.6337   -1.1998 H   0  0  0  0  0  0  0  0  0  0  0  0
  1  2  1  0  0  0  0
  1  5  1  0  0  0  0
  2  3  2  0  0  0  0
  2  6  1  0  0  0  0
  3  4  1  0  0  0  0
  3 25  1  0  0  0  0
  4  5  2  0  0  0  0
  4 24  1  0  0  0  0
  5  9  1  0  0  0  0
  6  7  2  0  0  0  0
  6  8  1  0  0  0  0
  9 10  1  0  0  0  0
  9 22  2  0  0  0  0
 10 11  1  0  0  0  0
 10 12  2  0  0  0  0
 12 13  1  0  0  0  0
 12 18  1  0  0  0  0
 13 14  1  0  0  0  0
 13 15  1  0  0  0  0
 15 16  1  0  0  0  0
 15 17  1  0  0  0  0
 15 41  1  0  0  0  0
 18 19  1  0  0  0  0
 18 20  2  0  0  0  0
 20 21  1  0  0  0  0
 20 22  1  0  0  0  0
 22 23  1  0  0  0  0
 25 26  1  0  0  0  0
 26 27  1  0  0  0  0
 26 28  1  0  0  0  0
 26 29  1  0  0  0  0
 29 30  2  0  0  0  0
 29 31  1  0  0  0  0
 32 33  1  0  0  0  0
 32 34  1  0  0  0  0
 32 35  1  0  0  0  0
 32 46  1  0  0  0  0
 35 36  1  0  0  0  0
 35 37  1  0  0  0  0
 35 38  1  0  0  0  0
 38 39  1  0  0  0  0
 38 40  1  0  0  0  0
 38 41  1  0  0  0  0
 41 42  1  0  0  0  0
 41 43  1  0  0  0  0
 43 44  1  0  0  0  0
 43 45  1  0  0  0  0
 43 46  1  0  0  0  0
 46 47  1  0  0  0  0
 46 48  1  0  0  0  0
M  CHG  1   8  -1
M  CHG  1  31  -1
M  END
$$$$
ptp1b_wilson_19_2qbs
  MOE2024           3D
ptp1b_wilson_19_2qbs
 45 47  0  0  0  0  0  0  0  0999 V2000
   44.6510   14.0740    0.6210 S   0  0  0  0  0  0  0  0  0  0  0  0
   44.7900   15.4820    1.5710 C   0  0  0  0  0  0  0  0  0  0  0  0
   45.6940   15.2460    2.6400 C   0  0  0  0  0  0  0  0  0  0  0  0
   46.2290   13.9270    2.6200 C   0  0  0  0  0  0  0  0  0  0  0  0
   45.7340   13.1350    1.5470 C   0  0  0  0  0  0  0  0  0  0  0  0
   44.0570   16.6430    1.2480 C   0  0  0  0  0  0  0  0  0  0  0  0
   43.4980   16.6800    0.1500 O   0  0  0  0  0  0  0  0  0  0  0  0
   43.9810   17.5810    2.0360 O   0  5  0  0  0  0  0  0  0  0  0  0
   46.0160   11.7110    1.1830 C   0  0  0  0  0  0  0  0  0  0  0  0
   47.2610   11.0370    1.4450 C   0  0  0  0  0  0  0  0  0  0  0  0
   48.0773   11.5626    1.9181 H   0  0  0  0  0  0  0  0  0  0  0  0
   47.4050    9.6640    1.0720 C   0  0  0  0  0  0  0  0  0  0  0  0
   46.3290    8.9560    0.4400 C   0  0  0  0  0  0  0  0  0  0  0  0
   46.4561    7.9192    0.1655 H   0  0  0  0  0  0  0  0  0  0  0  0
   45.0950    9.6130    0.1730 C   0  0  0  0  0  0  0  0  0  0  0  0
   44.2837    9.0851   -0.3060 H   0  0  0  0  0  0  0  0  0  0  0  0
   44.9490   10.9800    0.5490 C   0  0  0  0  0  0  0  0  0  0  0  0
   44.0127   11.4815    0.3532 H   0  0  0  0  0  0  0  0  0  0  0  0
   47.4770   13.3320    3.9450 Br  0  0  0  0  0  0  0  0  0  0  0  0
   46.0630   16.1740    3.6490 O   0  0  0  0  0  0  0  0  0  0  0  0
   47.2490   16.9320    3.4120 C   0  0  0  0  0  0  0  0  0  0  0  0
   47.0569   17.6950    2.6577 H   0  0  0  0  0  0  0  0  0  0  0  0
   48.0471   16.2740    3.0682 H   0  0  0  0  0  0  0  0  0  0  0  0
   47.6510   17.5920    4.7270 C   0  0  0  0  0  0  0  0  0  0  0  0
   46.8770   17.5250    5.6970 O   0  0  0  0  0  0  0  0  0  0  0  0
   48.7320   18.1660    4.7830 O   0  5  0  0  0  0  0  0  0  0  0  0
   48.6210    8.9650    1.3420 N   0  0  0  0  0  0  0  0  0  0  0  0
   49.3906    9.5529    1.0555 H   0  0  0  0  0  0  0  0  0  0  0  0
   49.1550    7.7650    1.8570 C   0  0  0  0  0  0  0  0  0  0  0  0
   48.9897    6.9563    1.1451 H   0  0  0  0  0  0  0  0  0  0  0  0
   50.6800    7.8220    2.0380 C   0  0  0  0  0  0  0  0  0  0  0  0
   50.9377    8.6089    2.7469 H   0  0  0  0  0  0  0  0  0  0  0  0
   51.1574    8.0259    1.0795 H   0  0  0  0  0  0  0  0  0  0  0  0
   51.1580    6.4520    2.5800 C   0  0  0  0  0  0  0  0  0  0  0  0
   52.2285    6.5079    2.7776 H   0  0  0  0  0  0  0  0  0  0  0  0
   50.9674    5.6905    1.8237 H   0  0  0  0  0  0  0  0  0  0  0  0
   50.4280    6.0460    3.8930 C   0  0  0  0  0  0  0  0  0  0  0  0
   50.7486    6.7171    4.6898 H   0  0  0  0  0  0  0  0  0  0  0  0
   50.7093    5.0233    4.1442 H   0  0  0  0  0  0  0  0  0  0  0  0
   48.8790    6.1190    3.7780 C   0  0  0  0  0  0  0  0  0  0  0  0
   48.4432    5.9966    4.7696 H   0  0  0  0  0  0  0  0  0  0  0  0
   48.5330    5.3158    3.1274 H   0  0  0  0  0  0  0  0  0  0  0  0
   48.4240    7.4700    3.1930 C   0  0  0  0  0  0  0  0  0  0  0  0
   47.3494    7.4380    3.0131 H   0  0  0  0  0  0  0  0  0  0  0  0
   48.6494    8.2626    3.9065 H   0  0  0  0  0  0  0  0  0  0  0  0
  1  2  1  0  0  0  0
  1  5  1  0  0  0  0
  2  3  2  0  0  0  0
  2  6  1  0  0  0  0
  3  4  1  0  0  0  0
  3 20  1  0  0  0  0
  4  5  2  0  0  0  0
  4 19  1  0  0  0  0
  5  9  1  0  0  0  0
  6  7  2  0  0  0  0
  6  8  1  0  0  0  0
  9 10  1  0  0  0  0
  9 17  2  0  0  0  0
 10 11  1  0  0  0  0
 10 12  2  0  0  0  0
 12 13  1  0  0  0  0
 12 27  1  0  0  0  0
 13 14  1  0  0  0  0
 13 15  2  0  0  0  0
 15 16  1  0  0  0  0
 15 17  1  0  0  0  0
 17 18  1  0  0  0  0
 20 21  1  0  0  0  0
 21 22  1  0  0  0  0
 21 23  1  0  0  0  0
 21 24  1  0  0  0  0
 24 25  2  0  0  0  0
 24 26  1  0  0  0  0
 27 28  1  0  0  0  0
 27 29  1  0  0  0  0
 29 30  1  0  0  0  0
 29 31  1  0  0  0  0
 29 43  1  0  0  0  0
 31 32  1  0  0  0  0
 31 33  1  0  0  0  0
 31 34  1  0  0  0  0
 34 35  1  0  0  0  0
 34 36  1  0  0  0  0
 34 37  1  0  0  0  0
 37 38  1  0  0  0  0
 37 39  1  0  0  0  0
 37 40  1  0  0  0  0
 40 41  1  0  0  0  0
 40 42  1  0  0  0  0
 40 43  1  0  0  0  0
 43 44  1  0  0  0  0
 43 45  1  0  0  0  0
M  CHG  1   8  -1
M  CHG  1  26  -1
M  END
$$$$
ptp1b_wilson_20
  MOE2024           3D
ptp1b_wilson_20
 42 44  0  0  0  0  0  0  0  0999 V2000
   44.6510   14.0740    0.6210 S   0  0  0  0  0  0  0  0  0  0  0  0
   44.7900   15.4820    1.5710 C   0  0  0  0  0  0  0  0  0  0  0  0
   45.6940   15.2460    2.6400 C   0  0  0  0  0  0  0  0  0  0  0  0
   46.2290   13.9270    2.6200 C   0  0  0  0  0  0  0  0  0  0  0  0
   45.7340   13.1350    1.5470 C   0  0  0  0  0  0  0  0  0  0  0  0
   44.0570   16.6430    1.2480 C   0  0  0  0  0  0  0  0  0  0  0  0
   43.4980   16.6800    0.1500 O   0  0  0  0  0  0  0  0  0  0  0  0
   43.9810   17.5810    2.0360 O   0  5  0  0  0  0  0  0  0  0  0  0
   46.0160   11.7110    1.1830 C   0  0  0  0  0  0  0  0  0  0  0  0
   47.2610   11.0370    1.4450 C   0  0  0  0  0  0  0  0  0  0  0  0
   48.0773   11.5626    1.9181 H   0  0  0  0  0  0  0  0  0  0  0  0
   47.4050    9.6640    1.0720 C   0  0  0  0  0  0  0  0  0  0  0  0
   46.3290    8.9560    0.4400 C   0  0  0  0  0  0  0  0  0  0  0  0
   46.4339    7.9414    0.1684 H   0  0  0  0  0  0  0  0  0  0  0  0
   45.0950    9.6130    0.1730 C   0  0  0  0  0  0  0  0  0  0  0  0
   44.2837    9.0851   -0.3060 H   0  0  0  0  0  0  0  0  0  0  0  0
   44.9490   10.9800    0.5490 C   0  0  0  0  0  0  0  0  0  0  0  0
   44.0127   11.4815    0.3532 H   0  0  0  0  0  0  0  0  0  0  0  0
   47.4770   13.3320    3.9450 Br  0  0  0  0  0  0  0  0  0  0  0  0
   46.0630   16.1740    3.6490 O   0  0  0  0  0  0  0  0  0  0  0  0
   47.2490   16.9320    3.4120 C   0  0  0  0  0  0  0  0  0  0  0  0
   47.0569   17.6950    2.6577 H   0  0  0  0  0  0  0  0  0  0  0  0
   48.0471   16.2740    3.0682 H   0  0  0  0  0  0  0  0  0  0  0  0
   47.6510   17.5920    4.7270 C   0  0  0  0  0  0  0  0  0  0  0  0
   46.8770   17.5250    5.6970 O   0  0  0  0  0  0  0  0  0  0  0  0
   48.7320   18.1660    4.7830 O   0  5  0  0  0  0  0  0  0  0  0  0
   48.6210    8.9650    1.3420 N   0  0  0  0  0  0  0  0  0  0  0  0
   49.3906    9.5529    1.0555 H   0  0  0  0  0  0  0  0  0  0  0  0
   50.0609    6.2370   -0.6587 C   0  0  0  0  0  0  0  0  0  0  0  0
   50.8599    6.3397   -1.3955 H   0  0  0  0  0  0  0  0  0  0  0  0
   49.3911    5.4263   -0.9525 H   0  0  0  0  0  0  0  0  0  0  0  0
   49.2714    7.5442   -0.5305 C   0  0  0  0  0  0  0  0  0  0  0  0
   48.4036    7.5572   -1.1896 H   0  0  0  0  0  0  0  0  0  0  0  0
   49.9255    8.3871   -0.7596 H   0  0  0  0  0  0  0  0  0  0  0  0
   48.8602    7.5869    0.9388 C   0  0  0  0  0  0  0  0  0  0  0  0
   48.0417    6.8939    1.1465 H   0  0  0  0  0  0  0  0  0  0  0  0
   50.1277    7.0996    1.6295 C   0  0  0  0  0  0  0  0  0  0  0  0
   49.9142    6.7627    2.6444 H   0  0  0  0  0  0  0  0  0  0  0  0
   50.8743    7.8952    1.6500 H   0  0  0  0  0  0  0  0  0  0  0  0
   50.6266    5.9549    0.7404 C   0  0  0  0  0  0  0  0  0  0  0  0
   50.2380    5.0027    1.1077 H   0  0  0  0  0  0  0  0  0  0  0  0
   51.7178    5.9265    0.7272 H   0  0  0  0  0  0  0  0  0  0  0  0
  1  2  1  0  0  0  0
  1  5  1  0  0  0  0
  2  3  2  0  0  0  0
  2  6  1  0  0  0  0
  3  4  1  0  0  0  0
  3 20  1  0  0  0  0
  4  5  2  0  0  0  0
  4 19  1  0  0  0  0
  5  9  1  0  0  0  0
  6  7  2  0  0  0  0
  6  8  1  0  0  0  0
  9 10  1  0  0  0  0
  9 17  2  0  0  0  0
 10 11  1  0  0  0  0
 10 12  2  0  0  0  0
 12 13  1  0  0  0  0
 12 27  1  0  0  0  0
 13 14  1  0  0  0  0
 13 15  2  0  0  0  0
 15 16  1  0  0  0  0
 15 17  1  0  0  0  0
 17 18  1  0  0  0  0
 20 21  1  0  0  0  0
 21 22  1  0  0  0  0
 21 23  1  0  0  0  0
 21 24  1  0  0  0  0
 24 25  2  0  0  0  0
 24 26  1  0  0  0  0
 27 28  1  0  0  0  0
 27 35  1  0  0  0  0
 29 30  1  0  0  0  0
 29 31  1  0  0  0  0
 29 32  1  0  0  0  0
 29 40  1  0  0  0  0
 32 33  1  0  0  0  0
 32 34  1  0  0  0  0
 32 35  1  0  0  0  0
 35 36  1  0  0  0  0
 35 37  1  0  0  0  0
 37 38  1  0  0  0  0
 37 39  1  0  0  0  0
 37 40  1  0  0  0  0
 40 41  1  0  0  0  0
 40 42  1  0  0  0  0
M  CHG  1   8  -1
M  CHG  1  26  -1
M  END
$$$$
ptp1b_wilson_21
  MOE2024           3D
ptp1b_wilson_21
 48 50  0  0  0  0  0  0  0  0999 V2000
   44.6510   14.0740    0.6210 S   0  0  0  0  0  0  0  0  0  0  0  0
   44.7900   15.4820    1.5710 C   0  0  0  0  0  0  0  0  0  0  0  0
   45.6940   15.2460    2.6400 C   0  0  0  0  0  0  0  0  0  0  0  0
   46.2290   13.9270    2.6200 C   0  0  0  0  0  0  0  0  0  0  0  0
   45.7340   13.1350    1.5470 C   0  0  0  0  0  0  0  0  0  0  0  0
   44.0570   16.6430    1.2480 C   0  0  0  0  0  0  0  0  0  0  0  0
   43.4980   16.6800    0.1500 O   0  0  0  0  0  0  0  0  0  0  0  0
   43.9810   17.5810    2.0360 O   0  5  0  0  0  0  0  0  0  0  0  0
   46.0160   11.7110    1.1830 C   0  0  0  0  0  0  0  0  0  0  0  0
   47.2610   11.0370    1.4450 C   0  0  0  0  0  0  0  0  0  0  0  0
   48.0773   11.5626    1.9181 H   0  0  0  0  0  0  0  0  0  0  0  0
   47.4050    9.6640    1.0720 C   0  0  0  0  0  0  0  0  0  0  0  0
   46.3290    8.9560    0.4400 C   0  0  0  0  0  0  0  0  0  0  0  0
   46.4358    7.9425    0.1647 H   0  0  0  0  0  0  0  0  0  0  0  0
   45.0950    9.6130    0.1730 C   0  0  0  0  0  0  0  0  0  0  0  0
   44.2837    9.0851   -0.3060 H   0  0  0  0  0  0  0  0  0  0  0  0
   44.9490   10.9800    0.5490 C   0  0  0  0  0  0  0  0  0  0  0  0
   44.0127   11.4815    0.3532 H   0  0  0  0  0  0  0  0  0  0  0  0
   47.4770   13.3320    3.9450 Br  0  0  0  0  0  0  0  0  0  0  0  0
   46.0630   16.1740    3.6490 O   0  0  0  0  0  0  0  0  0  0  0  0
   47.2490   16.9320    3.4120 C   0  0  0  0  0  0  0  0  0  0  0  0
   47.0569   17.6950    2.6577 H   0  0  0  0  0  0  0  0  0  0  0  0
   48.0471   16.2740    3.0682 H   0  0  0  0  0  0  0  0  0  0  0  0
   47.6510   17.5920    4.7270 C   0  0  0  0  0  0  0  0  0  0  0  0
   46.8770   17.5250    5.6970 O   0  0  0  0  0  0  0  0  0  0  0  0
   48.7320   18.1660    4.7830 O   0  5  0  0  0  0  0  0  0  0  0  0
   48.6210    8.9650    1.3420 N   0  0  0  0  0  0  0  0  0  0  0  0
   49.3906    9.5529    1.0555 H   0  0  0  0  0  0  0  0  0  0  0  0
   51.4351    5.6400    0.4528 C   0  0  0  0  0  0  0  0  0  0  0  0
   52.1451    4.8207    0.5799 H   0  0  0  0  0  0  0  0  0  0  0  0
   52.0219    6.5584    0.3907 H   0  0  0  0  0  0  0  0  0  0  0  0
   50.5341    5.6989    1.6952 C   0  0  0  0  0  0  0  0  0  0  0  0
   51.1396    5.4254    2.5613 H   0  0  0  0  0  0  0  0  0  0  0  0
   49.7224    4.9738    1.6140 H   0  0  0  0  0  0  0  0  0  0  0  0
   49.9756    7.1104    1.9480 C   0  0  0  0  0  0  0  0  0  0  0  0
   50.7998    7.8248    1.9362 H   0  0  0  0  0  0  0  0  0  0  0  0
   49.5469    7.1306    2.9511 H   0  0  0  0  0  0  0  0  0  0  0  0
   48.8839    7.5775    0.9782 C   0  0  0  0  0  0  0  0  0  0  0  0
   48.0131    6.9361    1.1244 H   0  0  0  0  0  0  0  0  0  0  0  0
   49.3018    7.5711   -0.5020 C   0  0  0  0  0  0  0  0  0  0  0  0
   50.2581    8.0790   -0.6301 H   0  0  0  0  0  0  0  0  0  0  0  0
   48.5548    8.1252   -1.0709 H   0  0  0  0  0  0  0  0  0  0  0  0
   49.3669    6.1494   -1.0836 C   0  0  0  0  0  0  0  0  0  0  0  0
   49.1807    6.2057   -2.1578 H   0  0  0  0  0  0  0  0  0  0  0  0
   48.5620    5.5501   -0.6536 H   0  0  0  0  0  0  0  0  0  0  0  0
   50.7031    5.4175   -0.8802 C   0  0  0  0  0  0  0  0  0  0  0  0
   51.3829    5.7118   -1.6824 H   0  0  0  0  0  0  0  0  0  0  0  0
   50.5163    4.3481   -0.9973 H   0  0  0  0  0  0  0  0  0  0  0  0
  1  2  1  0  0  0  0
  1  5  1  0  0  0  0
  2  3  2  0  0  0  0
  2  6  1  0  0  0  0
  3  4  1  0  0  0  0
  3 20  1  0  0  0  0
  4  5  2  0  0  0  0
  4 19  1  0  0  0  0
  5  9  1  0  0  0  0
  6  7  2  0  0  0  0
  6  8  1  0  0  0  0
  9 10  1  0  0  0  0
  9 17  2  0  0  0  0
 10 11  1  0  0  0  0
 10 12  2  0  0  0  0
 12 13  1  0  0  0  0
 12 27  1  0  0  0  0
 13 14  1  0  0  0  0
 13 15  2  0  0  0  0
 15 16  1  0  0  0  0
 15 17  1  0  0  0  0
 17 18  1  0  0  0  0
 20 21  1  0  0  0  0
 21 22  1  0  0  0  0
 21 23  1  0  0  0  0
 21 24  1  0  0  0  0
 24 25  2  0  0  0  0
 24 26  1  0  0  0  0
 27 28  1  0  0  0  0
 27 38  1  0  0  0  0
 29 30  1  0  0  0  0
 29 31  1  0  0  0  0
 29 32  1  0  0  0  0
 29 46  1  0  0  0  0
 32 33  1  0  0  0  0
 32 34  1  0  0  0  0
 32 35  1  0  0  0  0
 35 36  1  0  0  0  0
 35 37  1  0  0  0  0
 35 38  1  0  0  0  0
 38 39  1  0  0  0  0
 38 40  1  0  0  0  0
 40 41  1  0  0  0  0
 40 42  1  0  0  0  0
 40 43  1  0  0  0  0
 43 44  1  0  0  0  0
 43 45  1  0  0  0  0
 43 46  1  0  0  0  0
 46 47  1  0  0  0  0
 46 48  1  0  0  0  0
M  CHG  1   8  -1
M  CHG  1  26  -1
M  END
$$$$
ptp1b_wilson_22
  MOE2024           3D
ptp1b_wilson_22
 43 45  0  0  0  0  0  0  0  0999 V2000
   44.6510   14.0740    0.6210 S   0  0  0  0  0  0  0  0  0  0  0  0
   44.7900   15.4820    1.5710 C   0  0  0  0  0  0  0  0  0  0  0  0
   45.6940   15.2460    2.6400 C   0  0  0  0  0  0  0  0  0  0  0  0
   46.2290   13.9270    2.6200 C   0  0  0  0  0  0  0  0  0  0  0  0
   45.7340   13.1350    1.5470 C   0  0  0  0  0  0  0  0  0  0  0  0
   44.0570   16.6430    1.2480 C   0  0  0  0  0  0  0  0  0  0  0  0
   43.4980   16.6800    0.1500 O   0  0  0  0  0  0  0  0  0  0  0  0
   43.9810   17.5810    2.0360 O   0  5  0  0  0  0  0  0  0  0  0  0
   46.0160   11.7110    1.1830 C   0  0  0  0  0  0  0  0  0  0  0  0
   47.2610   11.0370    1.4450 C   0  0  0  0  0  0  0  0  0  0  0  0
   48.0773   11.5626    1.9181 H   0  0  0  0  0  0  0  0  0  0  0  0
   47.3742    9.6914    1.0731 C   0  0  0  0  0  0  0  0  0  0  0  0
   46.3190    8.9928    0.4395 C   0  0  0  0  0  0  0  0  0  0  0  0
   46.4579    7.9867    0.1484 H   0  0  0  0  0  0  0  0  0  0  0  0
   45.0950    9.6130    0.1730 C   0  0  0  0  0  0  0  0  0  0  0  0
   44.2837    9.0851   -0.3060 H   0  0  0  0  0  0  0  0  0  0  0  0
   44.9490   10.9800    0.5490 C   0  0  0  0  0  0  0  0  0  0  0  0
   44.0127   11.4815    0.3532 H   0  0  0  0  0  0  0  0  0  0  0  0
   47.4770   13.3320    3.9450 Br  0  0  0  0  0  0  0  0  0  0  0  0
   46.0630   16.1740    3.6490 O   0  0  0  0  0  0  0  0  0  0  0  0
   47.2490   16.9320    3.4120 C   0  0  0  0  0  0  0  0  0  0  0  0
   47.0569   17.6950    2.6577 H   0  0  0  0  0  0  0  0  0  0  0  0
   48.0471   16.2740    3.0682 H   0  0  0  0  0  0  0  0  0  0  0  0
   47.6510   17.5920    4.7270 C   0  0  0  0  0  0  0  0  0  0  0  0
   46.8770   17.5250    5.6970 O   0  0  0  0  0  0  0  0  0  0  0  0
   48.7320   18.1660    4.7830 O   0  5  0  0  0  0  0  0  0  0  0  0
   48.5953    9.0636    1.3504 N   0  0  0  0  0  0  0  0  0  0  0  0
   49.2192    9.6478    1.9248 H   0  0  0  0  0  0  0  0  0  0  0  0
   48.6308    7.6736    1.7851 C   0  0  0  0  0  0  0  0  0  0  0  0
   48.0534    7.0024    1.1475 H   0  0  0  0  0  0  0  0  0  0  0  0
   50.0954    7.2388    1.7525 C   0  0  0  0  0  0  0  0  0  0  0  0
   50.7057    7.9357    2.3273 H   0  0  0  0  0  0  0  0  0  0  0  0
   50.4472    7.2199    0.7213 H   0  0  0  0  0  0  0  0  0  0  0  0
   50.2223    5.8444    2.3723 C   0  0  0  0  0  0  0  0  0  0  0  0
   51.2754    5.5595    2.4051 H   0  0  0  0  0  0  0  0  0  0  0  0
   49.6831    5.1142    1.7656 H   0  0  0  0  0  0  0  0  0  0  0  0
   49.7021    5.8605    3.6957 O   0  0  0  0  0  0  0  0  0  0  0  0
   48.3233    6.1994    3.7765 C   0  0  0  0  0  0  0  0  0  0  0  0
   48.0091    6.1718    4.8213 H   0  0  0  0  0  0  0  0  0  0  0  0
   47.7267    5.4772    3.2154 H   0  0  0  0  0  0  0  0  0  0  0  0
   48.1011    7.6087    3.2197 C   0  0  0  0  0  0  0  0  0  0  0  0
   47.0376    7.8458    3.2318 H   0  0  0  0  0  0  0  0  0  0  0  0
   48.6335    8.3246    3.8461 H   0  0  0  0  0  0  0  0  0  0  0  0
  1  2  1  0  0  0  0
  1  5  1  0  0  0  0
  2  3  2  0  0  0  0
  2  6  1  0  0  0  0
  3  4  1  0  0  0  0
  3 20  1  0  0  0  0
  4  5  2  0  0  0  0
  4 19  1  0  0  0  0
  5  9  1  0  0  0  0
  6  7  2  0  0  0  0
  6  8  1  0  0  0  0
  9 10  1  0  0  0  0
  9 17  2  0  0  0  0
 10 11  1  0  0  0  0
 10 12  2  0  0  0  0
 12 13  1  0  0  0  0
 12 27  1  0  0  0  0
 13 14  1  0  0  0  0
 13 15  2  0  0  0  0
 15 16  1  0  0  0  0
 15 17  1  0  0  0  0
 17 18  1  0  0  0  0
 20 21  1  0  0  0  0
 21 22  1  0  0  0  0
 21 23  1  0  0  0  0
 21 24  1  0  0  0  0
 24 25  2  0  0  0  0
 24 26  1  0  0  0  0
 27 28  1  0  0  0  0
 27 29  1  0  0  0  0
 29 30  1  0  0  0  0
 29 31  1  0  0  0  0
 29 41  1  0  0  0  0
 31 32  1  0  0  0  0
 31 33  1  0  0  0  0
 31 34  1  0  0  0  0
 34 35  1  0  0  0  0
 34 36  1  0  0  0  0
 34 37  1  0  0  0  0
 37 38  1  0  0  0  0
 38 39  1  0  0  0  0
 38 40  1  0  0  0  0
 38 41  1  0  0  0  0
 41 42  1  0  0  0  0
 41 43  1  0  0  0  0
M  CHG  1   8  -1
M  CHG  1  26  -1
M  END
$$$$
ptp1b_wilson_23_2qbq
  MOE2024           3D
ptp1b_wilson_23_2qbq
 57 59  0  0  0  0  0  0  0  0999 V2000
   44.6510   14.0740    0.6210 S   0  0  0  0  0  0  0  0  0  0  0  0
   44.7900   15.4820    1.5710 C   0  0  0  0  0  0  0  0  0  0  0  0
   45.6940   15.2460    2.6400 C   0  0  0  0  0  0  0  0  0  0  0  0
   46.2290   13.9270    2.6200 C   0  0  0  0  0  0  0  0  0  0  0  0
   45.7340   13.1350    1.5470 C   0  0  0  0  0  0  0  0  0  0  0  0
   44.0570   16.6430    1.2480 C   0  0  0  0  0  0  0  0  0  0  0  0
   43.4980   16.6800    0.1500 O   0  0  0  0  0  0  0  0  0  0  0  0
   43.9810   17.5810    2.0360 O   0  5  0  0  0  0  0  0  0  0  0  0
   46.0160   11.7110    1.1830 C   0  0  0  0  0  0  0  0  0  0  0  0
   47.2610   11.0370    1.4450 C   0  0  0  0  0  0  0  0  0  0  0  0
   48.0773   11.5626    1.9181 H   0  0  0  0  0  0  0  0  0  0  0  0
   47.4050    9.6640    1.0720 C   0  0  0  0  0  0  0  0  0  0  0  0
   46.3290    8.9560    0.4400 C   0  0  0  0  0  0  0  0  0  0  0  0
   46.4348    7.9418    0.1663 H   0  0  0  0  0  0  0  0  0  0  0  0
   45.0950    9.6130    0.1730 C   0  0  0  0  0  0  0  0  0  0  0  0
   44.2837    9.0851   -0.3060 H   0  0  0  0  0  0  0  0  0  0  0  0
   44.9490   10.9800    0.5490 C   0  0  0  0  0  0  0  0  0  0  0  0
   44.0127   11.4815    0.3532 H   0  0  0  0  0  0  0  0  0  0  0  0
   47.4770   13.3320    3.9450 Br  0  0  0  0  0  0  0  0  0  0  0  0
   46.0630   16.1740    3.6490 O   0  0  0  0  0  0  0  0  0  0  0  0
   47.2490   16.9320    3.4120 C   0  0  0  0  0  0  0  0  0  0  0  0
   47.0569   17.6950    2.6577 H   0  0  0  0  0  0  0  0  0  0  0  0
   48.0471   16.2740    3.0682 H   0  0  0  0  0  0  0  0  0  0  0  0
   47.6510   17.5920    4.7270 C   0  0  0  0  0  0  0  0  0  0  0  0
   46.8770   17.5250    5.6970 O   0  0  0  0  0  0  0  0  0  0  0  0
   48.7320   18.1660    4.7830 O   0  5  0  0  0  0  0  0  0  0  0  0
   48.6210    8.9650    1.3420 N   0  0  0  0  0  0  0  0  0  0  0  0
   49.3906    9.5529    1.0555 H   0  0  0  0  0  0  0  0  0  0  0  0
   50.7390    5.5222    0.0126 C   0  0  0  0  0  0  0  0  0  0  0  0
   50.8947    4.4698   -0.2288 H   0  0  0  0  0  0  0  0  0  0  0  0
   51.6828    6.0283   -0.1967 H   0  0  0  0  0  0  0  0  0  0  0  0
   50.4834    5.6675    1.5351 C   0  0  0  0  0  0  0  0  0  0  0  0
   51.8106    5.4018    2.2701 C   0  0  0  0  0  0  0  0  0  0  0  0
   52.1612    4.3904    2.0602 H   0  0  0  0  0  0  0  0  0  0  0  0
   51.6767    5.5118    3.3473 H   0  0  0  0  0  0  0  0  0  0  0  0
   52.5751    6.1095    1.9471 H   0  0  0  0  0  0  0  0  0  0  0  0
   49.4866    4.6281    2.0848 C   0  0  0  0  0  0  0  0  0  0  0  0
   49.7828    3.6242    1.7785 H   0  0  0  0  0  0  0  0  0  0  0  0
   48.4759    4.8169    1.7389 H   0  0  0  0  0  0  0  0  0  0  0  0
   49.4673    4.6674    3.1749 H   0  0  0  0  0  0  0  0  0  0  0  0
   50.0286    7.1039    1.8651 C   0  0  0  0  0  0  0  0  0  0  0  0
   50.8672    7.7860    1.7207 H   0  0  0  0  0  0  0  0  0  0  0  0
   49.7246    7.1645    2.9108 H   0  0  0  0  0  0  0  0  0  0  0  0
   48.8674    7.5735    0.9833 C   0  0  0  0  0  0  0  0  0  0  0  0
   48.0043    6.9341    1.1653 H   0  0  0  0  0  0  0  0  0  0  0  0
   49.2851    7.5361   -0.4938 C   0  0  0  0  0  0  0  0  0  0  0  0
   50.1344    8.2071   -0.6262 H   0  0  0  0  0  0  0  0  0  0  0  0
   48.4700    7.9069   -1.1147 H   0  0  0  0  0  0  0  0  0  0  0  0
   49.6873    6.1214   -0.9565 C   0  0  0  0  0  0  0  0  0  0  0  0
   50.3325    6.2317   -2.3508 C   0  0  0  0  0  0  0  0  0  0  0  0
   51.2165    6.8692   -2.3143 H   0  0  0  0  0  0  0  0  0  0  0  0
   49.6283    6.6645   -3.0631 H   0  0  0  0  0  0  0  0  0  0  0  0
   50.6297    5.2443   -2.7065 H   0  0  0  0  0  0  0  0  0  0  0  0
   48.4471    5.2247   -1.1389 C   0  0  0  0  0  0  0  0  0  0  0  0
   47.8244    5.6065   -1.9489 H   0  0  0  0  0  0  0  0  0  0  0  0
   48.7529    4.2073   -1.3854 H   0  0  0  0  0  0  0  0  0  0  0  0
   47.8333    5.1989   -0.2447 H   0  0  0  0  0  0  0  0  0  0  0  0
  1  2  1  0  0  0  0
  1  5  1  0  0  0  0
  2  3  2  0  0  0  0
  2  6  1  0  0  0  0
  3  4  1  0  0  0  0
  3 20  1  0  0  0  0
  4  5  2  0  0  0  0
  4 19  1  0  0  0  0
  5  9  1  0  0  0  0
  6  7  2  0  0  0  0
  6  8  1  0  0  0  0
  9 10  1  0  0  0  0
  9 17  2  0  0  0  0
 10 11  1  0  0  0  0
 10 12  2  0  0  0  0
 12 13  1  0  0  0  0
 12 27  1  0  0  0  0
 13 14  1  0  0  0  0
 13 15  2  0  0  0  0
 15 16  1  0  0  0  0
 15 17  1  0  0  0  0
 17 18  1  0  0  0  0
 20 21  1  0  0  0  0
 21 22  1  0  0  0  0
 21 23  1  0  0  0  0
 21 24  1  0  0  0  0
 24 25  2  0  0  0  0
 24 26  1  0  0  0  0
 27 28  1  0  0  0  0
 27 44  1  0  0  0  0
 29 30  1  0  0  0  0
 29 31  1  0  0  0  0
 29 32  1  0  0  0  0
 29 49  1  0  0  0  0
 32 33  1  0  0  0  0
 32 37  1  0  0  0  0
 32 41  1  0  0  0  0
 33 34  1  0  0  0  0
 33 35  1  0  0  0  0
 33 36  1  0  0  0  0
 37 38  1  0  0  0  0
 37 39  1  0  0  0  0
 37 40  1  0  0  0  0
 41 42  1  0  0  0  0
 41 43  1  0  0  0  0
 41 44  1  0  0  0  0
 44 45  1  0  0  0  0
 44 46  1  0  0  0  0
 46 47  1  0  0  0  0
 46 48  1  0  0  0  0
 46 49  1  0  0  0  0
 49 50  1  0  0  0  0
 49 54  1  0  0  0  0
 50 51  1  0  0  0  0
 50 52  1  0  0  0  0
 50 53  1  0  0  0  0
 54 55  1  0  0  0  0
 54 56  1  0  0  0  0
 54 57  1  0  0  0  0
M  CHG  1   8  -1
M  CHG  1  26  -1
M  END
$$$$
ptp1b_wilson_26
  MOE2024           3D
ptp1b_wilson_26
 44 46  0  0  0  0  0  0  0  0999 V2000
   44.6510   14.0740    0.6210 S   0  0  0  0  0  0  0  0  0  0  0  0
   44.7900   15.4820    1.5710 C   0  0  0  0  0  0  0  0  0  0  0  0
   45.6940   15.2460    2.6400 C   0  0  0  0  0  0  0  0  0  0  0  0
   46.2290   13.9270    2.6200 C   0  0  0  0  0  0  0  0  0  0  0  0
   45.7340   13.1350    1.5470 C   0  0  0  0  0  0  0  0  0  0  0  0
   44.0570   16.6430    1.2480 C   0  0  0  0  0  0  0  0  0  0  0  0
   43.4980   16.6800    0.1500 O   0  0  0  0  0  0  0  0  0  0  0  0
   43.9810   17.5810    2.0360 O   0  5  0  0  0  0  0  0  0  0  0  0
   46.0160   11.7110    1.1830 C   0  0  0  0  0  0  0  0  0  0  0  0
   47.2610   11.0370    1.4450 C   0  0  0  0  0  0  0  0  0  0  0  0
   48.0773   11.5626    1.9181 H   0  0  0  0  0  0  0  0  0  0  0  0
   47.4050    9.6640    1.0720 C   0  0  0  0  0  0  0  0  0  0  0  0
   46.3290    8.9560    0.4400 C   0  0  0  0  0  0  0  0  0  0  0  0
   46.4561    7.9192    0.1655 H   0  0  0  0  0  0  0  0  0  0  0  0
   45.0950    9.6130    0.1730 C   0  0  0  0  0  0  0  0  0  0  0  0
   44.2837    9.0851   -0.3060 H   0  0  0  0  0  0  0  0  0  0  0  0
   44.9490   10.9800    0.5490 C   0  0  0  0  0  0  0  0  0  0  0  0
   44.0127   11.4815    0.3532 H   0  0  0  0  0  0  0  0  0  0  0  0
   47.4770   13.3320    3.9450 Br  0  0  0  0  0  0  0  0  0  0  0  0
   46.0630   16.1740    3.6490 O   0  0  0  0  0  0  0  0  0  0  0  0
   47.2490   16.9320    3.4120 C   0  0  0  0  0  0  0  0  0  0  0  0
   47.0569   17.6950    2.6577 H   0  0  0  0  0  0  0  0  0  0  0  0
   48.0471   16.2740    3.0682 H   0  0  0  0  0  0  0  0  0  0  0  0
   47.6510   17.5920    4.7270 C   0  0  0  0  0  0  0  0  0  0  0  0
   46.8770   17.5250    5.6970 O   0  0  0  0  0  0  0  0  0  0  0  0
   48.7320   18.1660    4.7830 O   0  5  0  0  0  0  0  0  0  0  0  0
   48.6210    8.9650    1.3420 N   0  0  0  0  0  0  0  0  0  0  0  0
   49.3906    9.5529    1.0555 H   0  0  0  0  0  0  0  0  0  0  0  0
   49.1550    7.7650    1.8570 C   0  0  0  0  0  0  0  0  0  0  0  0
   48.3765    7.0302    2.0739 H   0  0  0  0  0  0  0  0  0  0  0  0
   50.1184    7.2031    0.8116 C   0  0  0  0  0  0  0  0  0  0  0  0
   50.8658    7.9540    0.5543 H   0  0  0  0  0  0  0  0  0  0  0  0
   49.5645    6.9254   -0.0846 H   0  0  0  0  0  0  0  0  0  0  0  0
   50.8318    5.9761    1.3812 C   0  0  0  0  0  0  0  0  0  0  0  0
   51.5595    5.6177    0.6500 H   0  0  0  0  0  0  0  0  0  0  0  0
   50.1012    5.1834    1.5592 H   0  0  0  0  0  0  0  0  0  0  0  0
   51.5252    6.3178    2.6443 N   0  0  0  0  0  0  0  0  0  0  0  0
   52.0189    5.5104    3.0070 H   0  0  0  0  0  0  0  0  0  0  0  0
   50.6211    6.8767    3.6756 C   0  0  0  0  0  0  0  0  0  0  0  0
   51.2003    7.1543    4.5590 H   0  0  0  0  0  0  0  0  0  0  0  0
   49.8814    6.1279    3.9685 H   0  0  0  0  0  0  0  0  0  0  0  0
   49.9008    8.1164    3.1441 C   0  0  0  0  0  0  0  0  0  0  0  0
   49.1920    8.4796    3.8879 H   0  0  0  0  0  0  0  0  0  0  0  0
   50.6391    8.8932    2.9441 H   0  0  0  0  0  0  0  0  0  0  0  0
  1  2  1  0  0  0  0
  1  5  1  0  0  0  0
  2  3  2  0  0  0  0
  2  6  1  0  0  0  0
  3  4  1  0  0  0  0
  3 20  1  0  0  0  0
  4  5  2  0  0  0  0
  4 19  1  0  0  0  0
  5  9  1  0  0  0  0
  6  7  2  0  0  0  0
  6  8  1  0  0  0  0
  9 10  1  0  0  0  0
  9 17  2  0  0  0  0
 10 11  1  0  0  0  0
 10 12  2  0  0  0  0
 12 13  1  0  0  0  0
 12 27  1  0  0  0  0
 13 14  1  0  0  0  0
 13 15  2  0  0  0  0
 15 16  1  0  0  0  0
 15 17  1  0  0  0  0
 17 18  1  0  0  0  0
 20 21  1  0  0  0  0
 21 22  1  0  0  0  0
 21 23  1  0  0  0  0
 21 24  1  0  0  0  0
 24 25  2  0  0  0  0
 24 26  1  0  0  0  0
 27 28  1  0  0  0  0
 27 29  1  0  0  0  0
 29 30  1  0  0  0  0
 29 31  1  0  0  0  0
 29 42  1  0  0  0  0
 31 32  1  0  0  0  0
 31 33  1  0  0  0  0
 31 34  1  0  0  0  0
 34 35  1  0  0  0  0
 34 36  1  0  0  0  0
 34 37  1  0  0  0  0
 37 38  1  0  0  0  0
 37 39  1  0  0  0  0
 39 40  1  0  0  0  0
 39 41  1  0  0  0  0
 39 42  1  0  0  0  0
 42 43  1  0  0  0  0
 42 44  1  0  0  0  0
M  CHG  1   8  -1
M  CHG  1  26  -1
M  END
$$$$
ptp1b_wilson_27
  MOE2024           3D
ptp1b_wilson_27
 49 51  0  0  0  0  0  0  0  0999 V2000
   44.6510   14.0740    0.6210 S   0  0  0  0  0  0  0  0  0  0  0  0
   44.7900   15.4820    1.5710 C   0  0  0  0  0  0  0  0  0  0  0  0
   45.6940   15.2460    2.6400 C   0  0  0  0  0  0  0  0  0  0  0  0
   46.2290   13.9270    2.6200 C   0  0  0  0  0  0  0  0  0  0  0  0
   45.7340   13.1350    1.5470 C   0  0  0  0  0  0  0  0  0  0  0  0
   44.0570   16.6430    1.2480 C   0  0  0  0  0  0  0  0  0  0  0  0
   43.4980   16.6800    0.1500 O   0  0  0  0  0  0  0  0  0  0  0  0
   43.9810   17.5810    2.0360 O   0  5  0  0  0  0  0  0  0  0  0  0
   46.0160   11.7110    1.1830 C   0  0  0  0  0  0  0  0  0  0  0  0
   47.2610   11.0370    1.4450 C   0  0  0  0  0  0  0  0  0  0  0  0
   48.0773   11.5626    1.9181 H   0  0  0  0  0  0  0  0  0  0  0  0
   47.4050    9.6640    1.0720 C   0  0  0  0  0  0  0  0  0  0  0  0
   46.3290    8.9560    0.4400 C   0  0  0  0  0  0  0  0  0  0  0  0
   46.4561    7.9192    0.1655 H   0  0  0  0  0  0  0  0  0  0  0  0
   45.0950    9.6130    0.1730 C   0  0  0  0  0  0  0  0  0  0  0  0
   44.2837    9.0851   -0.3060 H   0  0  0  0  0  0  0  0  0  0  0  0
   44.9490   10.9800    0.5490 C   0  0  0  0  0  0  0  0  0  0  0  0
   44.0127   11.4815    0.3532 H   0  0  0  0  0  0  0  0  0  0  0  0
   47.4770   13.3320    3.9450 Br  0  0  0  0  0  0  0  0  0  0  0  0
   46.0630   16.1740    3.6490 O   0  0  0  0  0  0  0  0  0  0  0  0
   47.2490   16.9320    3.4120 C   0  0  0  0  0  0  0  0  0  0  0  0
   47.0569   17.6950    2.6577 H   0  0  0  0  0  0  0  0  0  0  0  0
   48.0471   16.2740    3.0682 H   0  0  0  0  0  0  0  0  0  0  0  0
   47.6510   17.5920    4.7270 C   0  0  0  0  0  0  0  0  0  0  0  0
   46.8770   17.5250    5.6970 O   0  0  0  0  0  0  0  0  0  0  0  0
   48.7320   18.1660    4.7830 O   0  5  0  0  0  0  0  0  0  0  0  0
   48.6210    8.9650    1.3420 N   0  0  0  0  0  0  0  0  0  0  0  0
   49.3906    9.5529    1.0555 H   0  0  0  0  0  0  0  0  0  0  0  0
   49.1550    7.7650    1.8570 C   0  0  0  0  0  0  0  0  0  0  0  0
   48.3670    7.0611    2.1358 H   0  0  0  0  0  0  0  0  0  0  0  0
   50.0321    7.1596    0.7564 C   0  0  0  0  0  0  0  0  0  0  0  0
   50.8175    7.8557    0.4599 H   0  0  0  0  0  0  0  0  0  0  0  0
   49.4186    6.9107   -0.1092 H   0  0  0  0  0  0  0  0  0  0  0  0
   50.6614    5.8802    1.3341 C   0  0  0  0  0  0  0  0  0  0  0  0
   51.3057    5.4416    0.5821 H   0  0  0  0  0  0  0  0  0  0  0  0
   49.8806    5.1943    1.6368 H   0  0  0  0  0  0  0  0  0  0  0  0
   51.4261    6.3212    2.5204 N   0  0  0  0  0  0  0  0  0  0  0  0
   50.6074    6.8476    3.6329 C   0  0  0  0  0  0  0  0  0  0  0  0
   51.1987    7.0878    4.5048 H   0  0  0  0  0  0  0  0  0  0  0  0
   49.8235    6.1393    3.8712 H   0  0  0  0  0  0  0  0  0  0  0  0
   49.9776    8.1440    3.0937 C   0  0  0  0  0  0  0  0  0  0  0  0
   49.3222    8.5794    3.8482 H   0  0  0  0  0  0  0  0  0  0  0  0
   50.7582    8.8586    2.8307 H   0  0  0  0  0  0  0  0  0  0  0  0
   52.7764    6.3028    2.5018 C   0  0  0  0  0  0  0  0  0  0  0  0
   53.5606    6.7931    3.7090 C   0  0  0  0  0  0  0  0  0  0  0  0
   53.3139    6.1820    4.5749 H   0  0  0  0  0  0  0  0  0  0  0  0
   53.3199    7.8372    3.8998 H   0  0  0  0  0  0  0  0  0  0  0  0
   54.6264    6.7046    3.5016 H   0  0  0  0  0  0  0  0  0  0  0  0
   53.4087    5.9059    1.5307 O   0  0  0  0  0  0  0  0  0  0  0  0
  1  2  1  0  0  0  0
  1  5  1  0  0  0  0
  2  3  2  0  0  0  0
  2  6  1  0  0  0  0
  3  4  1  0  0  0  0
  3 20  1  0  0  0  0
  4  5  2  0  0  0  0
  4 19  1  0  0  0  0
  5  9  1  0  0  0  0
  6  7  2  0  0  0  0
  6  8  1  0  0  0  0
  9 10  1  0  0  0  0
  9 17  2  0  0  0  0
 10 11  1  0  0  0  0
 10 12  2  0  0  0  0
 12 13  1  0  0  0  0
 12 27  1  0  0  0  0
 13 14  1  0  0  0  0
 13 15  2  0  0  0  0
 15 16  1  0  0  0  0
 15 17  1  0  0  0  0
 17 18  1  0  0  0  0
 20 21  1  0  0  0  0
 21 22  1  0  0  0  0
 21 23  1  0  0  0  0
 21 24  1  0  0  0  0
 24 25  2  0  0  0  0
 24 26  1  0  0  0  0
 27 28  1  0  0  0  0
 27 29  1  0  0  0  0
 29 30  1  0  0  0  0
 29 31  1  0  0  0  0
 29 41  1  0  0  0  0
 31 32  1  0  0  0  0
 31 33  1  0  0  0  0
 31 34  1  0  0  0  0
 34 35  1  0  0  0  0
 34 36  1  0  0  0  0
 34 37  1  0  0  0  0
 37 38  1  0  0  0  0
 37 44  1  0  0  0  0
 38 39  1  0  0  0  0
 38 40  1  0  0  0  0
 38 41  1  0  0  0  0
 41 42  1  0  0  0  0
 41 43  1  0  0  0  0
 44 45  1  0  0  0  0
 44 49  2  0  0  0  0
 45 46  1  0  0  0  0
 45 47  1  0  0  0  0
 45 48  1  0  0  0  0
M  CHG  1   8  -1
M  CHG  1  26  -1
M  END
$$$$
ptp1b_wilson_28
  MOE2024           3D
ptp1b_wilson_28
 50 52  0  0  0  0  0  0  0  0999 V2000
   44.6510   14.0740    0.6210 S   0  0  0  0  0  0  0  0  0  0  0  0
   44.7900   15.4820    1.5710 C   0  0  0  0  0  0  0  0  0  0  0  0
   45.6940   15.2460    2.6400 C   0  0  0  0  0  0  0  0  0  0  0  0
   46.2290   13.9270    2.6200 C   0  0  0  0  0  0  0  0  0  0  0  0
   45.7340   13.1350    1.5470 C   0  0  0  0  0  0  0  0  0  0  0  0
   44.0570   16.6430    1.2480 C   0  0  0  0  0  0  0  0  0  0  0  0
   43.4980   16.6800    0.1500 O   0  0  0  0  0  0  0  0  0  0  0  0
   43.9810   17.5810    2.0360 O   0  5  0  0  0  0  0  0  0  0  0  0
   46.0160   11.7110    1.1830 C   0  0  0  0  0  0  0  0  0  0  0  0
   47.2610   11.0370    1.4450 C   0  0  0  0  0  0  0  0  0  0  0  0
   48.0773   11.5626    1.9181 H   0  0  0  0  0  0  0  0  0  0  0  0
   47.4050    9.6640    1.0720 C   0  0  0  0  0  0  0  0  0  0  0  0
   46.3290    8.9560    0.4400 C   0  0  0  0  0  0  0  0  0  0  0  0
   46.4561    7.9192    0.1655 H   0  0  0  0  0  0  0  0  0  0  0  0
   45.0950    9.6130    0.1730 C   0  0  0  0  0  0  0  0  0  0  0  0
   44.2837    9.0851   -0.3060 H   0  0  0  0  0  0  0  0  0  0  0  0
   44.9490   10.9800    0.5490 C   0  0  0  0  0  0  0  0  0  0  0  0
   44.0127   11.4815    0.3532 H   0  0  0  0  0  0  0  0  0  0  0  0
   47.4770   13.3320    3.9450 Br  0  0  0  0  0  0  0  0  0  0  0  0
   46.0630   16.1740    3.6490 O   0  0  0  0  0  0  0  0  0  0  0  0
   47.2490   16.9320    3.4120 C   0  0  0  0  0  0  0  0  0  0  0  0
   47.0569   17.6950    2.6577 H   0  0  0  0  0  0  0  0  0  0  0  0
   48.0471   16.2740    3.0682 H   0  0  0  0  0  0  0  0  0  0  0  0
   47.6510   17.5920    4.7270 C   0  0  0  0  0  0  0  0  0  0  0  0
   46.8770   17.5250    5.6970 O   0  0  0  0  0  0  0  0  0  0  0  0
   48.7320   18.1660    4.7830 O   0  5  0  0  0  0  0  0  0  0  0  0
   48.6210    8.9650    1.3420 N   0  0  0  0  0  0  0  0  0  0  0  0
   49.3906    9.5529    1.0555 H   0  0  0  0  0  0  0  0  0  0  0  0
   49.1550    7.7650    1.8570 C   0  0  0  0  0  0  0  0  0  0  0  0
   48.3657    7.0605    2.1313 H   0  0  0  0  0  0  0  0  0  0  0  0
   50.0405    7.1601    0.7617 C   0  0  0  0  0  0  0  0  0  0  0  0
   50.8327    7.8547    0.4797 H   0  0  0  0  0  0  0  0  0  0  0  0
   49.4341    6.9222   -0.1118 H   0  0  0  0  0  0  0  0  0  0  0  0
   50.6539    5.8711    1.3372 C   0  0  0  0  0  0  0  0  0  0  0  0
   51.3084    5.4343    0.5943 H   0  0  0  0  0  0  0  0  0  0  0  0
   49.8616    5.1893    1.6198 H   0  0  0  0  0  0  0  0  0  0  0  0
   51.3915    6.2946    2.5424 N   0  0  0  0  0  0  0  0  0  0  0  0
   50.5847    6.8415    3.6474 C   0  0  0  0  0  0  0  0  0  0  0  0
   51.2000    7.0817    4.5058 H   0  0  0  0  0  0  0  0  0  0  0  0
   49.7954    6.1455    3.9018 H   0  0  0  0  0  0  0  0  0  0  0  0
   49.9707    8.1412    3.0988 C   0  0  0  0  0  0  0  0  0  0  0  0
   49.3160    8.5850    3.8488 H   0  0  0  0  0  0  0  0  0  0  0  0
   50.7622    8.8462    2.8420 H   0  0  0  0  0  0  0  0  0  0  0  0
   52.7660    6.3202    2.6064 C   0  0  0  0  0  0  0  0  0  0  0  0
   53.3743    6.7389    3.5833 O   0  0  0  0  0  0  0  0  0  0  0  0
   53.4234    5.8579    1.5195 O   0  0  0  0  0  0  0  0  0  0  0  0
   54.8743    5.8371    1.4921 C   0  0  0  0  0  0  0  0  0  0  0  0
   55.1900    5.4225    0.5348 H   0  0  0  0  0  0  0  0  0  0  0  0
   55.2252    5.2135    2.3160 H   0  0  0  0  0  0  0  0  0  0  0  0
   55.2355    6.8602    1.6061 H   0  0  0  0  0  0  0  0  0  0  0  0
  1  2  1  0  0  0  0
  1  5  1  0  0  0  0
  2  3  2  0  0  0  0
  2  6  1  0  0  0  0
  3  4  1  0  0  0  0
  3 20  1  0  0  0  0
  4  5  2  0  0  0  0
  4 19  1  0  0  0  0
  5  9  1  0  0  0  0
  6  7  2  0  0  0  0
  6  8  1  0  0  0  0
  9 10  1  0  0  0  0
  9 17  2  0  0  0  0
 10 11  1  0  0  0  0
 10 12  2  0  0  0  0
 12 13  1  0  0  0  0
 12 27  1  0  0  0  0
 13 14  1  0  0  0  0
 13 15  2  0  0  0  0
 15 16  1  0  0  0  0
 15 17  1  0  0  0  0
 17 18  1  0  0  0  0
 20 21  1  0  0  0  0
 21 22  1  0  0  0  0
 21 23  1  0  0  0  0
 21 24  1  0  0  0  0
 24 25  2  0  0  0  0
 24 26  1  0  0  0  0
 27 28  1  0  0  0  0
 27 29  1  0  0  0  0
 29 30  1  0  0  0  0
 29 31  1  0  0  0  0
 29 41  1  0  0  0  0
 31 32  1  0  0  0  0
 31 33  1  0  0  0  0
 31 34  1  0  0  0  0
 34 35  1  0  0  0  0
 34 36  1  0  0  0  0
 34 37  1  0  0  0  0
 37 38  1  0  0  0  0
 37 44  1  0  0  0  0
 38 39  1  0  0  0  0
 38 40  1  0  0  0  0
 38 41  1  0  0  0  0
 41 42  1  0  0  0  0
 41 43  1  0  0  0  0
 44 45  2  0  0  0  0
 44 46  1  0  0  0  0
 46 47  1  0  0  0  0
 47 48  1  0  0  0  0
 47 49  1  0  0  0  0
 47 50  1  0  0  0  0
M  CHG  1   8  -1
M  CHG  1  26  -1
M  END
$$$$
ptp1b_wilson_29
  MOE2024           3D
ptp1b_wilson_29
 61 64  0  0  0  0  0  0  0  0999 V2000
   44.6510   14.0740    0.6210 S   0  0  0  0  0  0  0  0  0  0  0  0
   44.7900   15.4820    1.5710 C   0  0  0  0  0  0  0  0  0  0  0  0
   45.6940   15.2460    2.6400 C   0  0  0  0  0  0  0  0  0  0  0  0
   46.2290   13.9270    2.6200 C   0  0  0  0  0  0  0  0  0  0  0  0
   45.7340   13.1350    1.5470 C   0  0  0  0  0  0  0  0  0  0  0  0
   44.0570   16.6430    1.2480 C   0  0  0  0  0  0  0  0  0  0  0  0
   43.4980   16.6800    0.1500 O   0  0  0  0  0  0  0  0  0  0  0  0
   43.9810   17.5810    2.0360 O   0  5  0  0  0  0  0  0  0  0  0  0
   46.0160   11.7110    1.1830 C   0  0  0  0  0  0  0  0  0  0  0  0
   47.2610   11.0370    1.4450 C   0  0  0  0  0  0  0  0  0  0  0  0
   48.0773   11.5626    1.9181 H   0  0  0  0  0  0  0  0  0  0  0  0
   47.4050    9.6640    1.0720 C   0  0  0  0  0  0  0  0  0  0  0  0
   46.3290    8.9560    0.4400 C   0  0  0  0  0  0  0  0  0  0  0  0
   46.4561    7.9192    0.1655 H   0  0  0  0  0  0  0  0  0  0  0  0
   45.0950    9.6130    0.1730 C   0  0  0  0  0  0  0  0  0  0  0  0
   44.2837    9.0851   -0.3060 H   0  0  0  0  0  0  0  0  0  0  0  0
   44.9490   10.9800    0.5490 C   0  0  0  0  0  0  0  0  0  0  0  0
   44.0127   11.4815    0.3532 H   0  0  0  0  0  0  0  0  0  0  0  0
   47.4770   13.3320    3.9450 Br  0  0  0  0  0  0  0  0  0  0  0  0
   46.0630   16.1740    3.6490 O   0  0  0  0  0  0  0  0  0  0  0  0
   47.2490   16.9320    3.4120 C   0  0  0  0  0  0  0  0  0  0  0  0
   47.0569   17.6950    2.6577 H   0  0  0  0  0  0  0  0  0  0  0  0
   48.0471   16.2740    3.0682 H   0  0  0  0  0  0  0  0  0  0  0  0
   47.6510   17.5920    4.7270 C   0  0  0  0  0  0  0  0  0  0  0  0
   46.8770   17.5250    5.6970 O   0  0  0  0  0  0  0  0  0  0  0  0
   48.7320   18.1660    4.7830 O   0  5  0  0  0  0  0  0  0  0  0  0
   48.6210    8.9650    1.3420 N   0  0  0  0  0  0  0  0  0  0  0  0
   49.3906    9.5529    1.0555 H   0  0  0  0  0  0  0  0  0  0  0  0
   49.1550    7.7650    1.8570 C   0  0  0  0  0  0  0  0  0  0  0  0
   48.3671    7.0614    2.1370 H   0  0  0  0  0  0  0  0  0  0  0  0
   50.0353    7.1577    0.7587 C   0  0  0  0  0  0  0  0  0  0  0  0
   50.8157    7.8587    0.4596 H   0  0  0  0  0  0  0  0  0  0  0  0
   49.4216    6.9030   -0.1050 H   0  0  0  0  0  0  0  0  0  0  0  0
   50.6694    5.8838    1.3458 C   0  0  0  0  0  0  0  0  0  0  0  0
   51.3004    5.4293    0.5951 H   0  0  0  0  0  0  0  0  0  0  0  0
   49.8860    5.2072    1.6637 H   0  0  0  0  0  0  0  0  0  0  0  0
   51.4380    6.3380    2.5256 N   0  0  0  0  0  0  0  0  0  0  0  0
   50.6130    6.8586    3.6333 C   0  0  0  0  0  0  0  0  0  0  0  0
   51.2237    7.0978    4.4954 H   0  0  0  0  0  0  0  0  0  0  0  0
   49.8379    6.1447    3.8805 H   0  0  0  0  0  0  0  0  0  0  0  0
   49.9725    8.1505    3.0947 C   0  0  0  0  0  0  0  0  0  0  0  0
   49.3160    8.5850    3.8488 H   0  0  0  0  0  0  0  0  0  0  0  0
   50.7513    8.8689    2.8352 H   0  0  0  0  0  0  0  0  0  0  0  0
   52.7716    6.6853    2.4808 C   0  0  0  0  0  0  0  0  0  0  0  0
   53.3055    7.3828    3.3365 O   0  0  0  0  0  0  0  0  0  0  0  0
   53.4801    6.2103    1.4352 N   0  0  0  0  0  0  0  0  0  0  0  0
   53.0619    5.4500    0.8956 H   0  0  0  0  0  0  0  0  0  0  0  0
   54.9227    6.3293    1.3974 C   0  0  0  0  0  0  0  0  0  0  0  0
   55.3587    5.8425    2.2606 H   0  0  0  0  0  0  0  0  0  0  0  0
   55.2066    7.3704    1.3099 H   0  0  0  0  0  0  0  0  0  0  0  0
   55.9429    4.1822   -2.1919 C   0  0  0  0  0  0  0  0  0  0  0  0
   56.1916    3.6532   -3.0762 H   0  0  0  0  0  0  0  0  0  0  0  0
   55.6322    5.5366   -2.2552 C   0  0  0  0  0  0  0  0  0  0  0  0
   55.6431    6.0396   -3.1883 H   0  0  0  0  0  0  0  0  0  0  0  0
   55.3067    6.2313   -1.0941 C   0  0  0  0  0  0  0  0  0  0  0  0
   55.0655    7.2625   -1.1489 H   0  0  0  0  0  0  0  0  0  0  0  0
   55.2933    5.5768    0.1375 C   0  0  0  0  0  0  0  0  0  0  0  0
   55.6023    4.2177    0.1941 C   0  0  0  0  0  0  0  0  0  0  0  0
   55.5900    3.7082    1.1240 H   0  0  0  0  0  0  0  0  0  0  0  0
   55.9273    3.5228   -0.9671 C   0  0  0  0  0  0  0  0  0  0  0  0
   56.1635    2.4905   -0.9186 H   0  0  0  0  0  0  0  0  0  0  0  0
  1  2  1  0  0  0  0
  1  5  1  0  0  0  0
  2  3  2  0  0  0  0
  2  6  1  0  0  0  0
  3  4  1  0  0  0  0
  3 20  1  0  0  0  0
  4  5  2  0  0  0  0
  4 19  1  0  0  0  0
  5  9  1  0  0  0  0
  6  7  2  0  0  0  0
  6  8  1  0  0  0  0
  9 10  1  0  0  0  0
  9 17  2  0  0  0  0
 10 11  1  0  0  0  0
 10 12  2  0  0  0  0
 12 13  1  0  0  0  0
 12 27  1  0  0  0  0
 13 14  1  0  0  0  0
 13 15  2  0  0  0  0
 15 16  1  0  0  0  0
 15 17  1  0  0  0  0
 17 18  1  0  0  0  0
 20 21  1  0  0  0  0
 21 22  1  0  0  0  0
 21 23  1  0  0  0  0
 21 24  1  0  0  0  0
 24 25  2  0  0  0  0
 24 26  1  0  0  0  0
 27 28  1  0  0  0  0
 27 29  1  0  0  0  0
 29 30  1  0  0  0  0
 29 31  1  0  0  0  0
 29 41  1  0  0  0  0
 31 32  1  0  0  0  0
 31 33  1  0  0  0  0
 31 34  1  0  0  0  0
 34 35  1  0  0  0  0
 34 36  1  0  0  0  0
 34 37  1  0  0  0  0
 37 38  1  0  0  0  0
 37 44  1  0  0  0  0
 38 39  1  0  0  0  0
 38 40  1  0  0  0  0
 38 41  1  0  0  0  0
 41 42  1  0  0  0  0
 41 43  1  0  0  0  0
 44 45  2  0  0  0  0
 44 46  1  0  0  0  0
 46 47  1  0  0  0  0
 46 48  1  0  0  0  0
 48 49  1  0  0  0  0
 48 50  1  0  0  0  0
 48 57  1  0  0  0  0
 51 52  1  0  0  0  0
 51 53  1  0  0  0  0
 51 60  2  0  0  0  0
 53 54  1  0  0  0  0
 53 55  2  0  0  0  0
 55 56  1  0  0  0  0
 55 57  1  0  0  0  0
 57 58  2  0  0  0  0
 58 59  1  0  0  0  0
 58 60  1  0  0  0  0
 60 61  1  0  0  0  0
M  CHG  1   8  -1
M  CHG  1  26  -1
M  END
$$$$
ptp1b_wilson_30
  MOE2024           3D
ptp1b_wilson_30
 50 52  0  0  0  0  0  0  0  0999 V2000
   44.6510   14.0740    0.6210 S   0  0  0  0  0  0  0  0  0  0  0  0
   44.7900   15.4820    1.5710 C   0  0  0  0  0  0  0  0  0  0  0  0
   45.6940   15.2460    2.6400 C   0  0  0  0  0  0  0  0  0  0  0  0
   46.2290   13.9270    2.6200 C   0  0  0  0  0  0  0  0  0  0  0  0
   45.7340   13.1350    1.5470 C   0  0  0  0  0  0  0  0  0  0  0  0
   44.0570   16.6430    1.2480 C   0  0  0  0  0  0  0  0  0  0  0  0
   43.4980   16.6800    0.1500 O   0  0  0  0  0  0  0  0  0  0  0  0
   43.9810   17.5810    2.0360 O   0  5  0  0  0  0  0  0  0  0  0  0
   46.0160   11.7110    1.1830 C   0  0  0  0  0  0  0  0  0  0  0  0
   47.2610   11.0370    1.4450 C   0  0  0  0  0  0  0  0  0  0  0  0
   48.0773   11.5626    1.9181 H   0  0  0  0  0  0  0  0  0  0  0  0
   47.4050    9.6640    1.0720 C   0  0  0  0  0  0  0  0  0  0  0  0
   46.3290    8.9560    0.4400 C   0  0  0  0  0  0  0  0  0  0  0  0
   46.4561    7.9192    0.1655 H   0  0  0  0  0  0  0  0  0  0  0  0
   45.0950    9.6130    0.1730 C   0  0  0  0  0  0  0  0  0  0  0  0
   44.2837    9.0851   -0.3060 H   0  0  0  0  0  0  0  0  0  0  0  0
   44.9490   10.9800    0.5490 C   0  0  0  0  0  0  0  0  0  0  0  0
   44.0127   11.4815    0.3532 H   0  0  0  0  0  0  0  0  0  0  0  0
   47.4770   13.3320    3.9450 Br  0  0  0  0  0  0  0  0  0  0  0  0
   46.0630   16.1740    3.6490 O   0  0  0  0  0  0  0  0  0  0  0  0
   47.2490   16.9320    3.4120 C   0  0  0  0  0  0  0  0  0  0  0  0
   47.0569   17.6950    2.6577 H   0  0  0  0  0  0  0  0  0  0  0  0
   48.0471   16.2740    3.0682 H   0  0  0  0  0  0  0  0  0  0  0  0
   47.6510   17.5920    4.7270 C   0  0  0  0  0  0  0  0  0  0  0  0
   46.8770   17.5250    5.6970 O   0  0  0  0  0  0  0  0  0  0  0  0
   48.7320   18.1660    4.7830 O   0  5  0  0  0  0  0  0  0  0  0  0
   48.6210    8.9650    1.3420 N   0  0  0  0  0  0  0  0  0  0  0  0
   49.3353    9.6707    1.5728 H   0  0  0  0  0  0  0  0  0  0  0  0
   49.1550    7.7650    1.8570 C   0  0  0  0  0  0  0  0  0  0  0  0
   48.5741    6.8957    1.5394 H   0  0  0  0  0  0  0  0  0  0  0  0
   50.5920    7.6554    1.3489 C   0  0  0  0  0  0  0  0  0  0  0  0
   51.1825    8.5160    1.6661 H   0  0  0  0  0  0  0  0  0  0  0  0
   50.5956    7.5879    0.2611 H   0  0  0  0  0  0  0  0  0  0  0  0
   51.1820    6.3722    1.9544 C   0  0  0  0  0  0  0  0  0  0  0  0
   52.2149    6.3065    1.6326 H   0  0  0  0  0  0  0  0  0  0  0  0
   50.5978    5.5146    1.6441 H   0  0  0  0  0  0  0  0  0  0  0  0
   51.1168    6.5425    3.4138 N   0  0  0  0  0  0  0  0  0  0  0  0
   49.7472    6.6032    3.9461 C   0  0  0  0  0  0  0  0  0  0  0  0
   49.7705    6.7017    5.0253 H   0  0  0  0  0  0  0  0  0  0  0  0
   49.1732    5.7437    3.6221 H   0  0  0  0  0  0  0  0  0  0  0  0
   49.1284    7.8895    3.3802 C   0  0  0  0  0  0  0  0  0  0  0  0
   48.0990    7.9896    3.7246 H   0  0  0  0  0  0  0  0  0  0  0  0
   49.7081    8.7535    3.7076 H   0  0  0  0  0  0  0  0  0  0  0  0
   52.3139    5.8914    4.3537 S   0  0  0  0  0  0  0  0  0  0  0  0
   51.9900    4.1511    4.3380 C   0  0  0  0  0  0  0  0  0  0  0  0
   52.6958    3.5997    4.9401 H   0  0  0  0  0  0  0  0  0  0  0  0
   52.0536    3.7157    3.3534 H   0  0  0  0  0  0  0  0  0  0  0  0
   51.0202    3.8962    4.7353 H   0  0  0  0  0  0  0  0  0  0  0  0
   53.5707    6.1067    3.7288 O   0  0  0  0  0  0  0  0  0  0  0  0
   52.1641    6.3501    5.6890 O   0  0  0  0  0  0  0  0  0  0  0  0
  1  2  1  0  0  0  0
  1  5  1  0  0  0  0
  2  3  2  0  0  0  0
  2  6  1  0  0  0  0
  3  4  1  0  0  0  0
  3 20  1  0  0  0  0
  4  5  2  0  0  0  0
  4 19  1  0  0  0  0
  5  9  1  0  0  0  0
  6  7  2  0  0  0  0
  6  8  1  0  0  0  0
  9 10  1  0  0  0  0
  9 17  2  0  0  0  0
 10 11  1  0  0  0  0
 10 12  2  0  0  0  0
 12 13  1  0  0  0  0
 12 27  1  0  0  0  0
 13 14  1  0  0  0  0
 13 15  2  0  0  0  0
 15 16  1  0  0  0  0
 15 17  1  0  0  0  0
 17 18  1  0  0  0  0
 20 21  1  0  0  0  0
 21 22  1  0  0  0  0
 21 23  1  0  0  0  0
 21 24  1  0  0  0  0
 24 25  2  0  0  0  0
 24 26  1  0  0  0  0
 27 28  1  0  0  0  0
 27 29  1  0  0  0  0
 29 30  1  0  0  0  0
 29 31  1  0  0  0  0
 29 41  1  0  0  0  0
 31 32  1  0  0  0  0
 31 33  1  0  0  0  0
 31 34  1  0  0  0  0
 34 35  1  0  0  0  0
 34 36  1  0  0  0  0
 34 37  1  0  0  0  0
 37 38  1  0  0  0  0
 37 44  1  0  0  0  0
 38 39  1  0  0  0  0
 38 40  1  0  0  0  0
 38 41  1  0  0  0  0
 41 42  1  0  0  0  0
 41 43  1  0  0  0  0
 44 45  1  0  0  0  0
 44 49  2  0  0  0  0
 44 50  2  0  0  0  0
 45 46  1  0  0  0  0
 45 47  1  0  0  0  0
 45 48  1  0  0  0  0
M  CHG  1   8  -1
M  CHG  1  26  -1
M  END
$$$$
ptp1b_wilson_31
  MOE2024           3D
ptp1b_wilson_31
 57 60  0  0  0  0  0  0  0  0999 V2000
   44.6510   14.0740    0.6210 S   0  0  0  0  0  0  0  0  0  0  0  0
   44.7900   15.4820    1.5710 C   0  0  0  0  0  0  0  0  0  0  0  0
   45.6940   15.2460    2.6400 C   0  0  0  0  0  0  0  0  0  0  0  0
   46.2290   13.9270    2.6200 C   0  0  0  0  0  0  0  0  0  0  0  0
   45.7340   13.1350    1.5470 C   0  0  0  0  0  0  0  0  0  0  0  0
   44.0570   16.6430    1.2480 C   0  0  0  0  0  0  0  0  0  0  0  0
   43.4980   16.6800    0.1500 O   0  0  0  0  0  0  0  0  0  0  0  0
   43.9810   17.5810    2.0360 O   0  5  0  0  0  0  0  0  0  0  0  0
   46.0160   11.7110    1.1830 C   0  0  0  0  0  0  0  0  0  0  0  0
   47.2610   11.0370    1.4450 C   0  0  0  0  0  0  0  0  0  0  0  0
   48.0773   11.5626    1.9181 H   0  0  0  0  0  0  0  0  0  0  0  0
   47.4050    9.6640    1.0720 C   0  0  0  0  0  0  0  0  0  0  0  0
   46.3290    8.9560    0.4400 C   0  0  0  0  0  0  0  0  0  0  0  0
   46.4561    7.9192    0.1655 H   0  0  0  0  0  0  0  0  0  0  0  0
   45.0950    9.6130    0.1730 C   0  0  0  0  0  0  0  0  0  0  0  0
   44.2837    9.0851   -0.3060 H   0  0  0  0  0  0  0  0  0  0  0  0
   44.9490   10.9800    0.5490 C   0  0  0  0  0  0  0  0  0  0  0  0
   44.0127   11.4815    0.3532 H   0  0  0  0  0  0  0  0  0  0  0  0
   47.4770   13.3320    3.9450 Br  0  0  0  0  0  0  0  0  0  0  0  0
   46.0630   16.1740    3.6490 O   0  0  0  0  0  0  0  0  0  0  0  0
   47.2490   16.9320    3.4120 C   0  0  0  0  0  0  0  0  0  0  0  0
   47.0569   17.6950    2.6577 H   0  0  0  0  0  0  0  0  0  0  0  0
   48.0471   16.2740    3.0682 H   0  0  0  0  0  0  0  0  0  0  0  0
   47.6510   17.5920    4.7270 C   0  0  0  0  0  0  0  0  0  0  0  0
   46.8770   17.5250    5.6970 O   0  0  0  0  0  0  0  0  0  0  0  0
   48.7320   18.1660    4.7830 O   0  5  0  0  0  0  0  0  0  0  0  0
   48.6210    8.9650    1.3420 N   0  0  0  0  0  0  0  0  0  0  0  0
   49.3382    9.6703    1.5644 H   0  0  0  0  0  0  0  0  0  0  0  0
   49.1550    7.7650    1.8570 C   0  0  0  0  0  0  0  0  0  0  0  0
   48.5504    6.8992    1.5759 H   0  0  0  0  0  0  0  0  0  0  0  0
   50.5678    7.6304    1.2928 C   0  0  0  0  0  0  0  0  0  0  0  0
   51.1825    8.4866    1.5738 H   0  0  0  0  0  0  0  0  0  0  0  0
   50.5254    7.5488    0.2067 H   0  0  0  0  0  0  0  0  0  0  0  0
   51.1613    6.3464    1.8896 C   0  0  0  0  0  0  0  0  0  0  0  0
   52.1751    6.2564    1.5171 H   0  0  0  0  0  0  0  0  0  0  0  0
   50.5475    5.4944    1.6222 H   0  0  0  0  0  0  0  0  0  0  0  0
   51.1751    6.5371    3.3478 N   0  0  0  0  0  0  0  0  0  0  0  0
   49.8270    6.6248    3.9312 C   0  0  0  0  0  0  0  0  0  0  0  0
   49.8951    6.7367    5.0072 H   0  0  0  0  0  0  0  0  0  0  0  0
   49.2313    5.7663    3.6441 H   0  0  0  0  0  0  0  0  0  0  0  0
   49.1958    7.9108    3.3770 C   0  0  0  0  0  0  0  0  0  0  0  0
   48.1828    8.0243    3.7635 H   0  0  0  0  0  0  0  0  0  0  0  0
   49.7964    8.7736    3.6676 H   0  0  0  0  0  0  0  0  0  0  0  0
   52.3432    5.7420    4.2188 S   0  0  0  0  0  0  0  0  0  0  0  0
   53.5930    5.8855    3.5537 O   0  0  0  0  0  0  0  0  0  0  0  0
   52.2806    6.1705    5.5743 O   0  0  0  0  0  0  0  0  0  0  0  0
   51.0741    1.3185    4.0178 C   0  0  0  0  0  0  0  0  0  0  0  0
   50.7801    0.3003    3.9705 H   0  0  0  0  0  0  0  0  0  0  0  0
   50.6300    2.1232    5.0607 C   0  0  0  0  0  0  0  0  0  0  0  0
   49.9991    1.7174    5.8108 H   0  0  0  0  0  0  0  0  0  0  0  0
   51.0176    3.4584    5.1242 C   0  0  0  0  0  0  0  0  0  0  0  0
   50.6855    4.0672    5.9276 H   0  0  0  0  0  0  0  0  0  0  0  0
   51.8468    4.0070    4.1409 C   0  0  0  0  0  0  0  0  0  0  0  0
   52.2983    3.1829    3.1054 C   0  0  0  0  0  0  0  0  0  0  0  0
   52.9461    3.5812    2.3650 H   0  0  0  0  0  0  0  0  0  0  0  0
   51.9106    1.8476    3.0414 C   0  0  0  0  0  0  0  0  0  0  0  0
   52.2572    1.2319    2.2503 H   0  0  0  0  0  0  0  0  0  0  0  0
  1  2  1  0  0  0  0
  1  5  1  0  0  0  0
  2  3  2  0  0  0  0
  2  6  1  0  0  0  0
  3  4  1  0  0  0  0
  3 20  1  0  0  0  0
  4  5  2  0  0  0  0
  4 19  1  0  0  0  0
  5  9  1  0  0  0  0
  6  7  2  0  0  0  0
  6  8  1  0  0  0  0
  9 10  1  0  0  0  0
  9 17  2  0  0  0  0
 10 11  1  0  0  0  0
 10 12  2  0  0  0  0
 12 13  1  0  0  0  0
 12 27  1  0  0  0  0
 13 14  1  0  0  0  0
 13 15  2  0  0  0  0
 15 16  1  0  0  0  0
 15 17  1  0  0  0  0
 17 18  1  0  0  0  0
 20 21  1  0  0  0  0
 21 22  1  0  0  0  0
 21 23  1  0  0  0  0
 21 24  1  0  0  0  0
 24 25  2  0  0  0  0
 24 26  1  0  0  0  0
 27 28  1  0  0  0  0
 27 29  1  0  0  0  0
 29 30  1  0  0  0  0
 29 31  1  0  0  0  0
 29 41  1  0  0  0  0
 31 32  1  0  0  0  0
 31 33  1  0  0  0  0
 31 34  1  0  0  0  0
 34 35  1  0  0  0  0
 34 36  1  0  0  0  0
 34 37  1  0  0  0  0
 37 38  1  0  0  0  0
 37 44  1  0  0  0  0
 38 39  1  0  0  0  0
 38 40  1  0  0  0  0
 38 41  1  0  0  0  0
 41 42  1  0  0  0  0
 41 43  1  0  0  0  0
 44 45  2  0  0  0  0
 44 46  2  0  0  0  0
 44 53  1  0  0  0  0
 47 48  1  0  0  0  0
 47 49  1  0  0  0  0
 47 56  2  0  0  0  0
 49 50  1  0  0  0  0
 49 51  2  0  0  0  0
 51 52  1  0  0  0  0
 51 53  1  0  0  0  0
 53 54  2  0  0  0  0
 54 55  1  0  0  0  0
 54 56  1  0  0  0  0
 56 57  1  0  0  0  0
M  CHG  1   8  -1
M  CHG  1  26  -1
M  END
$$$$
ptp1b_wilson_32_2qbp
  MOE2024           3D
ptp1b_wilson_32_2qbp
 60 63  0  0  0  0  0  0  0  0999 V2000
   44.6510   14.0740    0.6210 S   0  0  0  0  0  0  0  0  0  0  0  0
   44.7900   15.4820    1.5710 C   0  0  0  0  0  0  0  0  0  0  0  0
   45.6940   15.2460    2.6400 C   0  0  0  0  0  0  0  0  0  0  0  0
   46.2290   13.9270    2.6200 C   0  0  0  0  0  0  0  0  0  0  0  0
   45.7340   13.1350    1.5470 C   0  0  0  0  0  0  0  0  0  0  0  0
   44.0570   16.6430    1.2480 C   0  0  0  0  0  0  0  0  0  0  0  0
   43.4980   16.6800    0.1500 O   0  0  0  0  0  0  0  0  0  0  0  0
   43.9810   17.5810    2.0360 O   0  5  0  0  0  0  0  0  0  0  0  0
   46.0160   11.7110    1.1830 C   0  0  0  0  0  0  0  0  0  0  0  0
   47.2610   11.0370    1.4450 C   0  0  0  0  0  0  0  0  0  0  0  0
   48.0773   11.5626    1.9181 H   0  0  0  0  0  0  0  0  0  0  0  0
   47.4050    9.6640    1.0720 C   0  0  0  0  0  0  0  0  0  0  0  0
   46.3290    8.9560    0.4400 C   0  0  0  0  0  0  0  0  0  0  0  0
   46.4561    7.9192    0.1655 H   0  0  0  0  0  0  0  0  0  0  0  0
   45.0950    9.6130    0.1730 C   0  0  0  0  0  0  0  0  0  0  0  0
   44.2837    9.0851   -0.3060 H   0  0  0  0  0  0  0  0  0  0  0  0
   44.9490   10.9800    0.5490 C   0  0  0  0  0  0  0  0  0  0  0  0
   44.0127   11.4815    0.3532 H   0  0  0  0  0  0  0  0  0  0  0  0
   47.4770   13.3320    3.9450 Br  0  0  0  0  0  0  0  0  0  0  0  0
   46.0630   16.1740    3.6490 O   0  0  0  0  0  0  0  0  0  0  0  0
   47.2490   16.9320    3.4120 C   0  0  0  0  0  0  0  0  0  0  0  0
   47.0569   17.6950    2.6577 H   0  0  0  0  0  0  0  0  0  0  0  0
   48.0471   16.2740    3.0682 H   0  0  0  0  0  0  0  0  0  0  0  0
   47.6510   17.5920    4.7270 C   0  0  0  0  0  0  0  0  0  0  0  0
   46.8770   17.5250    5.6970 O   0  0  0  0  0  0  0  0  0  0  0  0
   48.7320   18.1660    4.7830 O   0  5  0  0  0  0  0  0  0  0  0  0
   48.6210    8.9650    1.3420 N   0  0  0  0  0  0  0  0  0  0  0  0
   49.3387    9.6708    1.5622 H   0  0  0  0  0  0  0  0  0  0  0  0
   49.1550    7.7650    1.8570 C   0  0  0  0  0  0  0  0  0  0  0  0
   48.5437    6.9010    1.5858 H   0  0  0  0  0  0  0  0  0  0  0  0
   50.5634    7.6185    1.2804 C   0  0  0  0  0  0  0  0  0  0  0  0
   51.1816    8.4773    1.5452 H   0  0  0  0  0  0  0  0  0  0  0  0
   50.5108    7.5250    0.1957 H   0  0  0  0  0  0  0  0  0  0  0  0
   51.1652    6.3420    1.8875 C   0  0  0  0  0  0  0  0  0  0  0  0
   52.1795    6.2522    1.5158 H   0  0  0  0  0  0  0  0  0  0  0  0
   50.5527    5.4866    1.6300 H   0  0  0  0  0  0  0  0  0  0  0  0
   51.1735    6.5563    3.3421 N   0  0  0  0  0  0  0  0  0  0  0  0
   49.8343    6.6428    3.9434 C   0  0  0  0  0  0  0  0  0  0  0  0
   49.9130    6.7670    5.0173 H   0  0  0  0  0  0  0  0  0  0  0  0
   49.2351    5.7834    3.6686 H   0  0  0  0  0  0  0  0  0  0  0  0
   49.2022    7.9226    3.3772 C   0  0  0  0  0  0  0  0  0  0  0  0
   48.1913    8.0428    3.7672 H   0  0  0  0  0  0  0  0  0  0  0  0
   49.8061    8.7867    3.6573 H   0  0  0  0  0  0  0  0  0  0  0  0
   52.4393    5.9783    4.2486 S   0  0  0  0  0  0  0  0  0  0  0  0
   52.1547    4.2156    4.3506 C   0  0  0  0  0  0  0  0  0  0  0  0
   52.1528    3.7571    3.3741 H   0  0  0  0  0  0  0  0  0  0  0  0
   51.2061    3.9940    4.8138 H   0  0  0  0  0  0  0  0  0  0  0  0
   53.6502    6.1968    3.5351 O   0  0  0  0  0  0  0  0  0  0  0  0
   52.3485    6.5236    5.5587 O   0  0  0  0  0  0  0  0  0  0  0  0
   55.0074    1.8849    6.5883 C   0  0  0  0  0  0  0  0  0  0  0  0
   55.7103    1.3126    7.1381 H   0  0  0  0  0  0  0  0  0  0  0  0
   53.8395    2.3282    7.1998 C   0  0  0  0  0  0  0  0  0  0  0  0
   53.6536    2.0958    8.2172 H   0  0  0  0  0  0  0  0  0  0  0  0
   52.9180    3.0818    6.4789 C   0  0  0  0  0  0  0  0  0  0  0  0
   52.0368    3.4243    6.9590 H   0  0  0  0  0  0  0  0  0  0  0  0
   53.1565    3.3912    5.1401 C   0  0  0  0  0  0  0  0  0  0  0  0
   54.3342    2.9536    4.5354 C   0  0  0  0  0  0  0  0  0  0  0  0
   54.5393    3.1996    3.5242 H   0  0  0  0  0  0  0  0  0  0  0  0
   55.2552    2.1998    5.2563 C   0  0  0  0  0  0  0  0  0  0  0  0
   56.1487    1.8696    4.7914 H   0  0  0  0  0  0  0  0  0  0  0  0
  1  2  1  0  0  0  0
  1  5  1  0  0  0  0
  2  3  2  0  0  0  0
  2  6  1  0  0  0  0
  3  4  1  0  0  0  0
  3 20  1  0  0  0  0
  4  5  2  0  0  0  0
  4 19  1  0  0  0  0
  5  9  1  0  0  0  0
  6  7  2  0  0  0  0
  6  8  1  0  0  0  0
  9 10  1  0  0  0  0
  9 17  2  0  0  0  0
 10 11  1  0  0  0  0
 10 12  2  0  0  0  0
 12 13  1  0  0  0  0
 12 27  1  0  0  0  0
 13 14  1  0  0  0  0
 13 15  2  0  0  0  0
 15 16  1  0  0  0  0
 15 17  1  0  0  0  0
 17 18  1  0  0  0  0
 20 21  1  0  0  0  0
 21 22  1  0  0  0  0
 21 23  1  0  0  0  0
 21 24  1  0  0  0  0
 24 25  2  0  0  0  0
 24 26  1  0  0  0  0
 27 28  1  0  0  0  0
 27 29  1  0  0  0  0
 29 30  1  0  0  0  0
 29 31  1  0  0  0  0
 29 41  1  0  0  0  0
 31 32  1  0  0  0  0
 31 33  1  0  0  0  0
 31 34  1  0  0  0  0
 34 35  1  0  0  0  0
 34 36  1  0  0  0  0
 34 37  1  0  0  0  0
 37 38  1  0  0  0  0
 37 44  1  0  0  0  0
 38 39  1  0  0  0  0
 38 40  1  0  0  0  0
 38 41  1  0  0  0  0
 41 42  1  0  0  0  0
 41 43  1  0  0  0  0
 44 45  1  0  0  0  0
 44 48  2  0  0  0  0
 44 49  2  0  0  0  0
 45 46  1  0  0  0  0
 45 47  1  0  0  0  0
 45 56  1  0  0  0  0
 50 51  1  0  0  0  0
 50 52  1  0  0  0  0
 50 59  2  0  0  0  0
 52 53  1  0  0  0  0
 52 54  2  0  0  0  0
 54 55  1  0  0  0  0
 54 56  1  0  0  0  0
 56 57  2  0  0  0  0
 57 58  1  0  0  0  0
 57 59  1  0  0  0  0
 59 60  1  0  0  0  0
M  CHG  1   8  -1
M  CHG  1  26  -1
M  END
$$$$
ptp1b_wilson_33
  MOE2024           3D
ptp1b_wilson_33
 60 63  0  0  0  0  0  0  0  0999 V2000
   44.6510   14.0740    0.6210 S   0  0  0  0  0  0  0  0  0  0  0  0
   44.7900   15.4820    1.5710 C   0  0  0  0  0  0  0  0  0  0  0  0
   45.6940   15.2460    2.6400 C   0  0  0  0  0  0  0  0  0  0  0  0
   46.2290   13.9270    2.6200 C   0  0  0  0  0  0  0  0  0  0  0  0
   45.7340   13.1350    1.5470 C   0  0  0  0  0  0  0  0  0  0  0  0
   44.0570   16.6430    1.2480 C   0  0  0  0  0  0  0  0  0  0  0  0
   43.4980   16.6800    0.1500 O   0  0  0  0  0  0  0  0  0  0  0  0
   43.9810   17.5810    2.0360 O   0  5  0  0  0  0  0  0  0  0  0  0
   46.0160   11.7110    1.1830 C   0  0  0  0  0  0  0  0  0  0  0  0
   47.2610   11.0370    1.4450 C   0  0  0  0  0  0  0  0  0  0  0  0
   48.0773   11.5626    1.9181 H   0  0  0  0  0  0  0  0  0  0  0  0
   47.4050    9.6640    1.0720 C   0  0  0  0  0  0  0  0  0  0  0  0
   46.3290    8.9560    0.4400 C   0  0  0  0  0  0  0  0  0  0  0  0
   46.4561    7.9192    0.1655 H   0  0  0  0  0  0  0  0  0  0  0  0
   45.0950    9.6130    0.1730 C   0  0  0  0  0  0  0  0  0  0  0  0
   44.2837    9.0851   -0.3060 H   0  0  0  0  0  0  0  0  0  0  0  0
   44.9490   10.9800    0.5490 C   0  0  0  0  0  0  0  0  0  0  0  0
   44.0127   11.4815    0.3532 H   0  0  0  0  0  0  0  0  0  0  0  0
   46.8517   13.6301    3.2811 H   0  0  0  0  0  0  0  0  0  0  0  0
   46.0630   16.1740    3.6490 O   0  0  0  0  0  0  0  0  0  0  0  0
   47.2490   16.9320    3.4120 C   0  0  0  0  0  0  0  0  0  0  0  0
   47.0569   17.6950    2.6577 H   0  0  0  0  0  0  0  0  0  0  0  0
   48.0471   16.2740    3.0682 H   0  0  0  0  0  0  0  0  0  0  0  0
   47.6510   17.5920    4.7270 C   0  0  0  0  0  0  0  0  0  0  0  0
   46.8770   17.5250    5.6970 O   0  0  0  0  0  0  0  0  0  0  0  0
   48.7320   18.1660    4.7830 O   0  5  0  0  0  0  0  0  0  0  0  0
   48.6210    8.9650    1.3420 N   0  0  0  0  0  0  0  0  0  0  0  0
   49.3387    9.6708    1.5622 H   0  0  0  0  0  0  0  0  0  0  0  0
   49.1550    7.7650    1.8570 C   0  0  0  0  0  0  0  0  0  0  0  0
   48.5437    6.9010    1.5858 H   0  0  0  0  0  0  0  0  0  0  0  0
   50.5634    7.6185    1.2804 C   0  0  0  0  0  0  0  0  0  0  0  0
   51.1816    8.4773    1.5452 H   0  0  0  0  0  0  0  0  0  0  0  0
   50.5108    7.5250    0.1957 H   0  0  0  0  0  0  0  0  0  0  0  0
   51.1652    6.3420    1.8875 C   0  0  0  0  0  0  0  0  0  0  0  0
   52.1795    6.2522    1.5158 H   0  0  0  0  0  0  0  0  0  0  0  0
   50.5527    5.4866    1.6300 H   0  0  0  0  0  0  0  0  0  0  0  0
   51.1735    6.5563    3.3421 N   0  0  0  0  0  0  0  0  0  0  0  0
   49.8343    6.6428    3.9434 C   0  0  0  0  0  0  0  0  0  0  0  0
   49.9130    6.7670    5.0173 H   0  0  0  0  0  0  0  0  0  0  0  0
   49.2351    5.7834    3.6686 H   0  0  0  0  0  0  0  0  0  0  0  0
   49.2022    7.9226    3.3772 C   0  0  0  0  0  0  0  0  0  0  0  0
   48.1913    8.0428    3.7672 H   0  0  0  0  0  0  0  0  0  0  0  0
   49.8061    8.7867    3.6573 H   0  0  0  0  0  0  0  0  0  0  0  0
   52.4393    5.9783    4.2486 S   0  0  0  0  0  0  0  0  0  0  0  0
   52.1547    4.2156    4.3506 C   0  0  0  0  0  0  0  0  0  0  0  0
   52.1528    3.7571    3.3741 H   0  0  0  0  0  0  0  0  0  0  0  0
   51.2061    3.9940    4.8138 H   0  0  0  0  0  0  0  0  0  0  0  0
   53.6502    6.1968    3.5351 O   0  0  0  0  0  0  0  0  0  0  0  0
   52.3485    6.5236    5.5587 O   0  0  0  0  0  0  0  0  0  0  0  0
   55.0074    1.8849    6.5883 C   0  0  0  0  0  0  0  0  0  0  0  0
   55.7103    1.3126    7.1381 H   0  0  0  0  0  0  0  0  0  0  0  0
   53.8395    2.3282    7.1998 C   0  0  0  0  0  0  0  0  0  0  0  0
   53.6536    2.0958    8.2172 H   0  0  0  0  0  0  0  0  0  0  0  0
   52.9180    3.0818    6.4789 C   0  0  0  0  0  0  0  0  0  0  0  0
   52.0368    3.4243    6.9590 H   0  0  0  0  0  0  0  0  0  0  0  0
   53.1565    3.3912    5.1401 C   0  0  0  0  0  0  0  0  0  0  0  0
   54.3342    2.9536    4.5354 C   0  0  0  0  0  0  0  0  0  0  0  0
   54.5393    3.1996    3.5242 H   0  0  0  0  0  0  0  0  0  0  0  0
   55.2552    2.1998    5.2563 C   0  0  0  0  0  0  0  0  0  0  0  0
   56.1487    1.8696    4.7914 H   0  0  0  0  0  0  0  0  0  0  0  0
  1  2  1  0  0  0  0
  1  5  1  0  0  0  0
  2  3  2  0  0  0  0
  2  6  1  0  0  0  0
  3  4  1  0  0  0  0
  3 20  1  0  0  0  0
  4  5  2  0  0  0  0
  4 19  1  0  0  0  0
  5  9  1  0  0  0  0
  6  7  2  0  0  0  0
  6  8  1  0  0  0  0
  9 10  1  0  0  0  0
  9 17  2  0  0  0  0
 10 11  1  0  0  0  0
 10 12  2  0  0  0  0
 12 13  1  0  0  0  0
 12 27  1  0  0  0  0
 13 14  1  0  0  0  0
 13 15  2  0  0  0  0
 15 16  1  0  0  0  0
 15 17  1  0  0  0  0
 17 18  1  0  0  0  0
 20 21  1  0  0  0  0
 21 22  1  0  0  0  0
 21 23  1  0  0  0  0
 21 24  1  0  0  0  0
 24 25  2  0  0  0  0
 24 26  1  0  0  0  0
 27 28  1  0  0  0  0
 27 29  1  0  0  0  0
 29 30  1  0  0  0  0
 29 31  1  0  0  0  0
 29 41  1  0  0  0  0
 31 32  1  0  0  0  0
 31 33  1  0  0  0  0
 31 34  1  0  0  0  0
 34 35  1  0  0  0  0
 34 36  1  0  0  0  0
 34 37  1  0  0  0  0
 37 38  1  0  0  0  0
 37 44  1  0  0  0  0
 38 39  1  0  0  0  0
 38 40  1  0  0  0  0
 38 41  1  0  0  0  0
 41 42  1  0  0  0  0
 41 43  1  0  0  0  0
 44 45  1  0  0  0  0
 44 48  2  0  0  0  0
 44 49  2  0  0  0  0
 45 46  1  0  0  0  0
 45 47  1  0  0  0  0
 45 56  1  0  0  0  0
 50 51  1  0  0  0  0
 50 52  1  0  0  0  0
 50 59  2  0  0  0  0
 52 53  1  0  0  0  0
 52 54  2  0  0  0  0
 54 55  1  0  0  0  0
 54 56  1  0  0  0  0
 56 57  2  0  0  0  0
 57 58  1  0  0  0  0
 57 59  1  0  0  0  0
 59 60  1  0  0  0  0
M  CHG  1   8  -1
M  CHG  1  26  -1
M  END
$$$$
ptp1b_wilson_34
  MOE2024           3D
ptp1b_wilson_34
 63 66  0  0  0  0  0  0  0  0999 V2000
   44.6510   14.0740    0.6210 S   0  0  0  0  0  0  0  0  0  0  0  0
   44.7900   15.4820    1.5710 C   0  0  0  0  0  0  0  0  0  0  0  0
   45.6940   15.2460    2.6400 C   0  0  0  0  0  0  0  0  0  0  0  0
   46.2290   13.9270    2.6200 C   0  0  0  0  0  0  0  0  0  0  0  0
   45.7340   13.1350    1.5470 C   0  0  0  0  0  0  0  0  0  0  0  0
   44.0570   16.6430    1.2480 C   0  0  0  0  0  0  0  0  0  0  0  0
   43.4980   16.6800    0.1500 O   0  0  0  0  0  0  0  0  0  0  0  0
   43.9810   17.5810    2.0360 O   0  5  0  0  0  0  0  0  0  0  0  0
   46.0160   11.7110    1.1830 C   0  0  0  0  0  0  0  0  0  0  0  0
   47.2610   11.0370    1.4450 C   0  0  0  0  0  0  0  0  0  0  0  0
   48.0773   11.5626    1.9181 H   0  0  0  0  0  0  0  0  0  0  0  0
   47.4050    9.6640    1.0720 C   0  0  0  0  0  0  0  0  0  0  0  0
   46.3290    8.9560    0.4400 C   0  0  0  0  0  0  0  0  0  0  0  0
   46.4561    7.9192    0.1655 H   0  0  0  0  0  0  0  0  0  0  0  0
   45.0950    9.6130    0.1730 C   0  0  0  0  0  0  0  0  0  0  0  0
   44.2837    9.0851   -0.3060 H   0  0  0  0  0  0  0  0  0  0  0  0
   44.9490   10.9800    0.5490 C   0  0  0  0  0  0  0  0  0  0  0  0
   44.0127   11.4815    0.3532 H   0  0  0  0  0  0  0  0  0  0  0  0
   47.1828   13.4379    3.6908 C   0  0  0  0  0  0  0  0  0  0  0  0
   47.0147   14.0200    4.5984 H   0  0  0  0  0  0  0  0  0  0  0  0
   48.2004   13.5882    3.3336 H   0  0  0  0  0  0  0  0  0  0  0  0
   46.9766   12.3883    3.8926 H   0  0  0  0  0  0  0  0  0  0  0  0
   46.0630   16.1740    3.6490 O   0  0  0  0  0  0  0  0  0  0  0  0
   47.2490   16.9320    3.4120 C   0  0  0  0  0  0  0  0  0  0  0  0
   47.0569   17.6950    2.6577 H   0  0  0  0  0  0  0  0  0  0  0  0
   48.0471   16.2740    3.0682 H   0  0  0  0  0  0  0  0  0  0  0  0
   47.6510   17.5920    4.7270 C   0  0  0  0  0  0  0  0  0  0  0  0
   46.8770   17.5250    5.6970 O   0  0  0  0  0  0  0  0  0  0  0  0
   48.7320   18.1660    4.7830 O   0  5  0  0  0  0  0  0  0  0  0  0
   48.6210    8.9650    1.3420 N   0  0  0  0  0  0  0  0  0  0  0  0
   49.3387    9.6708    1.5622 H   0  0  0  0  0  0  0  0  0  0  0  0
   49.1550    7.7650    1.8570 C   0  0  0  0  0  0  0  0  0  0  0  0
   48.5437    6.9010    1.5858 H   0  0  0  0  0  0  0  0  0  0  0  0
   50.5634    7.6185    1.2804 C   0  0  0  0  0  0  0  0  0  0  0  0
   51.1816    8.4773    1.5452 H   0  0  0  0  0  0  0  0  0  0  0  0
   50.5108    7.5250    0.1957 H   0  0  0  0  0  0  0  0  0  0  0  0
   51.1652    6.3420    1.8875 C   0  0  0  0  0  0  0  0  0  0  0  0
   52.1795    6.2522    1.5158 H   0  0  0  0  0  0  0  0  0  0  0  0
   50.5527    5.4866    1.6300 H   0  0  0  0  0  0  0  0  0  0  0  0
   51.1735    6.5563    3.3421 N   0  0  0  0  0  0  0  0  0  0  0  0
   49.8343    6.6428    3.9434 C   0  0  0  0  0  0  0  0  0  0  0  0
   49.9130    6.7670    5.0173 H   0  0  0  0  0  0  0  0  0  0  0  0
   49.2351    5.7834    3.6686 H   0  0  0  0  0  0  0  0  0  0  0  0
   49.2022    7.9226    3.3772 C   0  0  0  0  0  0  0  0  0  0  0  0
   48.1913    8.0428    3.7672 H   0  0  0  0  0  0  0  0  0  0  0  0
   49.8061    8.7867    3.6573 H   0  0  0  0  0  0  0  0  0  0  0  0
   52.4393    5.9783    4.2486 S   0  0  0  0  0  0  0  0  0  0  0  0
   52.1547    4.2156    4.3506 C   0  0  0  0  0  0  0  0  0  0  0  0
   52.1528    3.7571    3.3741 H   0  0  0  0  0  0  0  0  0  0  0  0
   51.2061    3.9940    4.8138 H   0  0  0  0  0  0  0  0  0  0  0  0
   53.6502    6.1968    3.5351 O   0  0  0  0  0  0  0  0  0  0  0  0
   52.3485    6.5236    5.5587 O   0  0  0  0  0  0  0  0  0  0  0  0
   55.0074    1.8849    6.5883 C   0  0  0  0  0  0  0  0  0  0  0  0
   55.7103    1.3126    7.1381 H   0  0  0  0  0  0  0  0  0  0  0  0
   53.8395    2.3282    7.1998 C   0  0  0  0  0  0  0  0  0  0  0  0
   53.6536    2.0958    8.2172 H   0  0  0  0  0  0  0  0  0  0  0  0
   52.9180    3.0818    6.4789 C   0  0  0  0  0  0  0  0  0  0  0  0
   52.0368    3.4243    6.9590 H   0  0  0  0  0  0  0  0  0  0  0  0
   53.1565    3.3912    5.1401 C   0  0  0  0  0  0  0  0  0  0  0  0
   54.3342    2.9536    4.5354 C   0  0  0  0  0  0  0  0  0  0  0  0
   54.5393    3.1996    3.5242 H   0  0  0  0  0  0  0  0  0  0  0  0
   55.2552    2.1998    5.2563 C   0  0  0  0  0  0  0  0  0  0  0  0
   56.1487    1.8696    4.7914 H   0  0  0  0  0  0  0  0  0  0  0  0
  1  2  1  0  0  0  0
  1  5  1  0  0  0  0
  2  3  2  0  0  0  0
  2  6  1  0  0  0  0
  3  4  1  0  0  0  0
  3 23  1  0  0  0  0
  4  5  2  0  0  0  0
  4 19  1  0  0  0  0
  5  9  1  0  0  0  0
  6  7  2  0  0  0  0
  6  8  1  0  0  0  0
  9 10  1  0  0  0  0
  9 17  2  0  0  0  0
 10 11  1  0  0  0  0
 10 12  2  0  0  0  0
 12 13  1  0  0  0  0
 12 30  1  0  0  0  0
 13 14  1  0  0  0  0
 13 15  2  0  0  0  0
 15 16  1  0  0  0  0
 15 17  1  0  0  0  0
 17 18  1  0  0  0  0
 19 20  1  0  0  0  0
 19 21  1  0  0  0  0
 19 22  1  0  0  0  0
 23 24  1  0  0  0  0
 24 25  1  0  0  0  0
 24 26  1  0  0  0  0
 24 27  1  0  0  0  0
 27 28  2  0  0  0  0
 27 29  1  0  0  0  0
 30 31  1  0  0  0  0
 30 32  1  0  0  0  0
 32 33  1  0  0  0  0
 32 34  1  0  0  0  0
 32 44  1  0  0  0  0
 34 35  1  0  0  0  0
 34 36  1  0  0  0  0
 34 37  1  0  0  0  0
 37 38  1  0  0  0  0
 37 39  1  0  0  0  0
 37 40  1  0  0  0  0
 40 41  1  0  0  0  0
 40 47  1  0  0  0  0
 41 42  1  0  0  0  0
 41 43  1  0  0  0  0
 41 44  1  0  0  0  0
 44 45  1  0  0  0  0
 44 46  1  0  0  0  0
 47 48  1  0  0  0  0
 47 51  2  0  0  0  0
 47 52  2  0  0  0  0
 48 49  1  0  0  0  0
 48 50  1  0  0  0  0
 48 59  1  0  0  0  0
 53 54  1  0  0  0  0
 53 55  1  0  0  0  0
 53 62  2  0  0  0  0
 55 56  1  0  0  0  0
 55 57  2  0  0  0  0
 57 58  1  0  0  0  0
 57 59  1  0  0  0  0
 59 60  2  0  0  0  0
 60 61  1  0  0  0  0
 60 62  1  0  0  0  0
 62 63  1  0  0  0  0
M  CHG  1   8  -1
M  CHG  1  29  -1
M  END
$$$$
ptp1b_wilson_35
  MOE2024           3D
ptp1b_wilson_35
 60 63  0  0  0  0  0  0  0  0999 V2000
   44.6510   14.0740    0.6210 S   0  0  0  0  0  0  0  0  0  0  0  0
   44.7900   15.4820    1.5710 C   0  0  0  0  0  0  0  0  0  0  0  0
   45.6940   15.2460    2.6400 C   0  0  0  0  0  0  0  0  0  0  0  0
   46.2290   13.9270    2.6200 C   0  0  0  0  0  0  0  0  0  0  0  0
   47.3835   13.3371    3.8007 Cl  0  0  0  0  0  0  0  0  0  0  0  0
   45.7340   13.1350    1.5470 C   0  0  0  0  0  0  0  0  0  0  0  0
   44.0570   16.6430    1.2480 C   0  0  0  0  0  0  0  0  0  0  0  0
   43.4980   16.6800    0.1500 O   0  0  0  0  0  0  0  0  0  0  0  0
   43.9810   17.5810    2.0360 O   0  5  0  0  0  0  0  0  0  0  0  0
   46.0160   11.7110    1.1830 C   0  0  0  0  0  0  0  0  0  0  0  0
   47.2610   11.0370    1.4450 C   0  0  0  0  0  0  0  0  0  0  0  0
   48.0773   11.5626    1.9181 H   0  0  0  0  0  0  0  0  0  0  0  0
   47.4050    9.6640    1.0720 C   0  0  0  0  0  0  0  0  0  0  0  0
   46.3290    8.9560    0.4400 C   0  0  0  0  0  0  0  0  0  0  0  0
   46.4561    7.9192    0.1655 H   0  0  0  0  0  0  0  0  0  0  0  0
   45.0950    9.6130    0.1730 C   0  0  0  0  0  0  0  0  0  0  0  0
   44.2837    9.0851   -0.3060 H   0  0  0  0  0  0  0  0  0  0  0  0
   44.9490   10.9800    0.5490 C   0  0  0  0  0  0  0  0  0  0  0  0
   44.0127   11.4815    0.3532 H   0  0  0  0  0  0  0  0  0  0  0  0
   46.0630   16.1740    3.6490 O   0  0  0  0  0  0  0  0  0  0  0  0
   47.2490   16.9320    3.4120 C   0  0  0  0  0  0  0  0  0  0  0  0
   47.0569   17.6950    2.6577 H   0  0  0  0  0  0  0  0  0  0  0  0
   48.0471   16.2740    3.0682 H   0  0  0  0  0  0  0  0  0  0  0  0
   47.6510   17.5920    4.7270 C   0  0  0  0  0  0  0  0  0  0  0  0
   46.8770   17.5250    5.6970 O   0  0  0  0  0  0  0  0  0  0  0  0
   48.7320   18.1660    4.7830 O   0  5  0  0  0  0  0  0  0  0  0  0
   48.6210    8.9650    1.3420 N   0  0  0  0  0  0  0  0  0  0  0  0
   49.3387    9.6708    1.5622 H   0  0  0  0  0  0  0  0  0  0  0  0
   49.1550    7.7650    1.8570 C   0  0  0  0  0  0  0  0  0  0  0  0
   48.5437    6.9010    1.5858 H   0  0  0  0  0  0  0  0  0  0  0  0
   50.5634    7.6185    1.2804 C   0  0  0  0  0  0  0  0  0  0  0  0
   51.1816    8.4773    1.5452 H   0  0  0  0  0  0  0  0  0  0  0  0
   50.5108    7.5250    0.1957 H   0  0  0  0  0  0  0  0  0  0  0  0
   51.1652    6.3420    1.8875 C   0  0  0  0  0  0  0  0  0  0  0  0
   52.1795    6.2522    1.5158 H   0  0  0  0  0  0  0  0  0  0  0  0
   50.5527    5.4866    1.6300 H   0  0  0  0  0  0  0  0  0  0  0  0
   51.1735    6.5563    3.3421 N   0  0  0  0  0  0  0  0  0  0  0  0
   49.8343    6.6428    3.9434 C   0  0  0  0  0  0  0  0  0  0  0  0
   49.9130    6.7670    5.0173 H   0  0  0  0  0  0  0  0  0  0  0  0
   49.2351    5.7834    3.6686 H   0  0  0  0  0  0  0  0  0  0  0  0
   49.2022    7.9226    3.3772 C   0  0  0  0  0  0  0  0  0  0  0  0
   48.1913    8.0428    3.7672 H   0  0  0  0  0  0  0  0  0  0  0  0
   49.8061    8.7867    3.6573 H   0  0  0  0  0  0  0  0  0  0  0  0
   52.4393    5.9783    4.2486 S   0  0  0  0  0  0  0  0  0  0  0  0
   52.1547    4.2156    4.3506 C   0  0  0  0  0  0  0  0  0  0  0  0
   52.1528    3.7571    3.3741 H   0  0  0  0  0  0  0  0  0  0  0  0
   51.2061    3.9940    4.8138 H   0  0  0  0  0  0  0  0  0  0  0  0
   53.6502    6.1968    3.5351 O   0  0  0  0  0  0  0  0  0  0  0  0
   52.3485    6.5236    5.5587 O   0  0  0  0  0  0  0  0  0  0  0  0
   55.0074    1.8849    6.5883 C   0  0  0  0  0  0  0  0  0  0  0  0
   55.7103    1.3126    7.1381 H   0  0  0  0  0  0  0  0  0  0  0  0
   53.8395    2.3282    7.1998 C   0  0  0  0  0  0  0  0  0  0  0  0
   53.6536    2.0958    8.2172 H   0  0  0  0  0  0  0  0  0  0  0  0
   52.9180    3.0818    6.4789 C   0  0  0  0  0  0  0  0  0  0  0  0
   52.0368    3.4243    6.9590 H   0  0  0  0  0  0  0  0  0  0  0  0
   53.1565    3.3912    5.1401 C   0  0  0  0  0  0  0  0  0  0  0  0
   54.3342    2.9536    4.5354 C   0  0  0  0  0  0  0  0  0  0  0  0
   54.5393    3.1996    3.5242 H   0  0  0  0  0  0  0  0  0  0  0  0
   55.2552    2.1998    5.2563 C   0  0  0  0  0  0  0  0  0  0  0  0
   56.1487    1.8696    4.7914 H   0  0  0  0  0  0  0  0  0  0  0  0
  1  2  1  0  0  0  0
  1  6  1  0  0  0  0
  2  3  2  0  0  0  0
  2  7  1  0  0  0  0
  3  4  1  0  0  0  0
  3 20  1  0  0  0  0
  4  5  1  0  0  0  0
  4  6  2  0  0  0  0
  6 10  1  0  0  0  0
  7  8  2  0  0  0  0
  7  9  1  0  0  0  0
 10 11  1  0  0  0  0
 10 18  2  0  0  0  0
 11 12  1  0  0  0  0
 11 13  2  0  0  0  0
 13 14  1  0  0  0  0
 13 27  1  0  0  0  0
 14 15  1  0  0  0  0
 14 16  2  0  0  0  0
 16 17  1  0  0  0  0
 16 18  1  0  0  0  0
 18 19  1  0  0  0  0
 20 21  1  0  0  0  0
 21 22  1  0  0  0  0
 21 23  1  0  0  0  0
 21 24  1  0  0  0  0
 24 25  2  0  0  0  0
 24 26  1  0  0  0  0
 27 28  1  0  0  0  0
 27 29  1  0  0  0  0
 29 30  1  0  0  0  0
 29 31  1  0  0  0  0
 29 41  1  0  0  0  0
 31 32  1  0  0  0  0
 31 33  1  0  0  0  0
 31 34  1  0  0  0  0
 34 35  1  0  0  0  0
 34 36  1  0  0  0  0
 34 37  1  0  0  0  0
 37 38  1  0  0  0  0
 37 44  1  0  0  0  0
 38 39  1  0  0  0  0
 38 40  1  0  0  0  0
 38 41  1  0  0  0  0
 41 42  1  0  0  0  0
 41 43  1  0  0  0  0
 44 45  1  0  0  0  0
 44 48  2  0  0  0  0
 44 49  2  0  0  0  0
 45 46  1  0  0  0  0
 45 47  1  0  0  0  0
 45 56  1  0  0  0  0
 50 51  1  0  0  0  0
 50 52  1  0  0  0  0
 50 59  2  0  0  0  0
 52 53  1  0  0  0  0
 52 54  2  0  0  0  0
 54 55  1  0  0  0  0
 54 56  1  0  0  0  0
 56 57  2  0  0  0  0
 57 58  1  0  0  0  0
 57 59  1  0  0  0  0
 59 60  1  0  0  0  0
M  CHG  1   9  -1
M  CHG  1  26  -1
M  END
$$$$
ptp1b_wilson_36
  MOE2024           3D
ptp1b_wilson_36
 59 62  0  0  0  0  0  0  0  0999 V2000
   44.6510   14.0740    0.6210 S   0  0  0  0  0  0  0  0  0  0  0  0
   44.7900   15.4820    1.5710 C   0  0  0  0  0  0  0  0  0  0  0  0
   45.6940   15.2460    2.6400 C   0  0  0  0  0  0  0  0  0  0  0  0
   46.2290   13.9270    2.6200 C   0  0  0  0  0  0  0  0  0  0  0  0
   45.7340   13.1350    1.5470 C   0  0  0  0  0  0  0  0  0  0  0  0
   44.0570   16.6430    1.2480 C   0  0  0  0  0  0  0  0  0  0  0  0
   43.4980   16.6800    0.1500 O   0  0  0  0  0  0  0  0  0  0  0  0
   43.9810   17.5810    2.0360 O   0  5  0  0  0  0  0  0  0  0  0  0
   46.0160   11.7110    1.1830 C   0  0  0  0  0  0  0  0  0  0  0  0
   47.2610   11.0370    1.4450 C   0  0  0  0  0  0  0  0  0  0  0  0
   48.0819   11.5405    1.8773 H   0  0  0  0  0  0  0  0  0  0  0  0
   47.3928    9.7026    1.0796 C   0  0  0  0  0  0  0  0  0  0  0  0
   46.3448    9.0073    0.4642 C   0  0  0  0  0  0  0  0  0  0  0  0
   46.4592    7.9933    0.1902 H   0  0  0  0  0  0  0  0  0  0  0  0
   45.1349    9.6465    0.2030 C   0  0  0  0  0  0  0  0  0  0  0  0
   44.3457    9.1135   -0.2632 H   0  0  0  0  0  0  0  0  0  0  0  0
   44.9490   10.9800    0.5490 C   0  0  0  0  0  0  0  0  0  0  0  0
   44.0199   11.4500    0.3522 H   0  0  0  0  0  0  0  0  0  0  0  0
   47.4770   13.3320    3.9450 Br  0  0  0  0  0  0  0  0  0  0  0  0
   46.0630   16.1740    3.6490 O   0  0  0  0  0  0  0  0  0  0  0  0
   47.2490   16.9320    3.4120 C   0  0  0  0  0  0  0  0  0  0  0  0
   47.0569   17.6950    2.6577 H   0  0  0  0  0  0  0  0  0  0  0  0
   48.0471   16.2740    3.0682 H   0  0  0  0  0  0  0  0  0  0  0  0
   47.6510   17.5920    4.7270 C   0  0  0  0  0  0  0  0  0  0  0  0
   46.8770   17.5250    5.6970 O   0  0  0  0  0  0  0  0  0  0  0  0
   48.7320   18.1660    4.7830 O   0  5  0  0  0  0  0  0  0  0  0  0
   48.6076    9.1026    1.3430 O   0  0  0  0  0  0  0  0  0  0  0  0
   48.9616    7.7308    1.0597 C   0  0  0  0  0  0  0  0  0  0  0  0
   48.5786    7.3992    0.0935 H   0  0  0  0  0  0  0  0  0  0  0  0
   50.4893    7.6521    1.0557 C   0  0  0  0  0  0  0  0  0  0  0  0
   50.8874    7.9518    2.0265 H   0  0  0  0  0  0  0  0  0  0  0  0
   50.8903    8.3072    0.2829 H   0  0  0  0  0  0  0  0  0  0  0  0
   50.8676    6.1925    0.7559 C   0  0  0  0  0  0  0  0  0  0  0  0
   51.9491    6.1262    0.7927 H   0  0  0  0  0  0  0  0  0  0  0  0
   50.4693    5.9004   -0.2080 H   0  0  0  0  0  0  0  0  0  0  0  0
   50.2769    5.3758    1.8296 N   0  0  0  0  0  0  0  0  0  0  0  0
   48.8069    5.4089    1.8796 C   0  0  0  0  0  0  0  0  0  0  0  0
   48.4500    4.7938    2.6978 H   0  0  0  0  0  0  0  0  0  0  0  0
   48.3867    5.1121    0.9264 H   0  0  0  0  0  0  0  0  0  0  0  0
   48.4124    6.8594    2.1944 C   0  0  0  0  0  0  0  0  0  0  0  0
   47.3280    6.9439    2.2467 H   0  0  0  0  0  0  0  0  0  0  0  0
   48.8421    7.1668    3.1491 H   0  0  0  0  0  0  0  0  0  0  0  0
   51.0599    3.9906    2.3076 S   0  0  0  0  0  0  0  0  0  0  0  0
   50.7563    2.8268    0.9825 C   0  0  0  0  0  0  0  0  0  0  0  0
   51.1638    3.1789    0.0480 H   0  0  0  0  0  0  0  0  0  0  0  0
   49.7001    2.6651    0.8341 H   0  0  0  0  0  0  0  0  0  0  0  0
   52.4568    4.2491    2.3677 O   0  0  0  0  0  0  0  0  0  0  0  0
   50.4377    3.4971    3.4877 O   0  0  0  0  0  0  0  0  0  0  0  0
   52.3161   -1.1684    1.4184 C   0  0  0  0  0  0  0  0  0  0  0  0
   52.6965   -2.1520    1.5264 H   0  0  0  0  0  0  0  0  0  0  0  0
   51.2109   -0.7643    2.1599 C   0  0  0  0  0  0  0  0  0  0  0  0
   50.7508   -1.4387    2.8362 H   0  0  0  0  0  0  0  0  0  0  0  0
   50.7123    0.5270    2.0200 C   0  0  0  0  0  0  0  0  0  0  0  0
   49.8762    0.8288    2.5995 H   0  0  0  0  0  0  0  0  0  0  0  0
   51.3124    1.4211    1.1341 C   0  0  0  0  0  0  0  0  0  0  0  0
   52.4268    1.0138    0.4004 C   0  0  0  0  0  0  0  0  0  0  0  0
   52.9052    1.6857   -0.2656 H   0  0  0  0  0  0  0  0  0  0  0  0
   52.9254   -0.2779    0.5406 C   0  0  0  0  0  0  0  0  0  0  0  0
   53.7728   -0.5827   -0.0189 H   0  0  0  0  0  0  0  0  0  0  0  0
  1  2  1  0  0  0  0
  1  5  1  0  0  0  0
  2  3  2  0  0  0  0
  2  6  1  0  0  0  0
  3  4  1  0  0  0  0
  3 20  1  0  0  0  0
  4  5  2  0  0  0  0
  4 19  1  0  0  0  0
  5  9  1  0  0  0  0
  6  7  2  0  0  0  0
  6  8  1  0  0  0  0
  9 10  1  0  0  0  0
  9 17  2  0  0  0  0
 10 11  1  0  0  0  0
 10 12  2  0  0  0  0
 12 13  1  0  0  0  0
 12 27  1  0  0  0  0
 13 14  1  0  0  0  0
 13 15  2  0  0  0  0
 15 16  1  0  0  0  0
 15 17  1  0  0  0  0
 17 18  1  0  0  0  0
 20 21  1  0  0  0  0
 21 22  1  0  0  0  0
 21 23  1  0  0  0  0
 21 24  1  0  0  0  0
 24 25  2  0  0  0  0
 24 26  1  0  0  0  0
 27 28  1  0  0  0  0
 28 29  1  0  0  0  0
 28 30  1  0  0  0  0
 28 40  1  0  0  0  0
 30 31  1  0  0  0  0
 30 32  1  0  0  0  0
 30 33  1  0  0  0  0
 33 34  1  0  0  0  0
 33 35  1  0  0  0  0
 33 36  1  0  0  0  0
 36 37  1  0  0  0  0
 36 43  1  0  0  0  0
 37 38  1  0  0  0  0
 37 39  1  0  0  0  0
 37 40  1  0  0  0  0
 40 41  1  0  0  0  0
 40 42  1  0  0  0  0
 43 44  1  0  0  0  0
 43 47  2  0  0  0  0
 43 48  2  0  0  0  0
 44 45  1  0  0  0  0
 44 46  1  0  0  0  0
 44 55  1  0  0  0  0
 49 50  1  0  0  0  0
 49 51  1  0  0  0  0
 49 58  2  0  0  0  0
 51 52  1  0  0  0  0
 51 53  2  0  0  0  0
 53 54  1  0  0  0  0
 53 55  1  0  0  0  0
 55 56  2  0  0  0  0
 56 57  1  0  0  0  0
 56 58  1  0  0  0  0
 58 59  1  0  0  0  0
M  CHG  1   8  -1
M  CHG  1  26  -1
M  END
$$$$
ptp1b_wilson_37
  MOE2024           3D
ptp1b_wilson_37
 63 66  0  0  0  0  0  0  0  0999 V2000
   44.6510   14.0740    0.6210 S   0  0  0  0  0  0  0  0  0  0  0  0
   44.7900   15.4820    1.5710 C   0  0  0  0  0  0  0  0  0  0  0  0
   45.6940   15.2460    2.6400 C   0  0  0  0  0  0  0  0  0  0  0  0
   46.2290   13.9270    2.6200 C   0  0  0  0  0  0  0  0  0  0  0  0
   45.7340   13.1350    1.5470 C   0  0  0  0  0  0  0  0  0  0  0  0
   44.0570   16.6430    1.2480 C   0  0  0  0  0  0  0  0  0  0  0  0
   43.4980   16.6800    0.1500 O   0  0  0  0  0  0  0  0  0  0  0  0
   43.9810   17.5810    2.0360 O   0  5  0  0  0  0  0  0  0  0  0  0
   46.0160   11.7110    1.1830 C   0  0  0  0  0  0  0  0  0  0  0  0
   47.2610   11.0370    1.4450 C   0  0  0  0  0  0  0  0  0  0  0  0
   48.0798   11.5549    1.8613 H   0  0  0  0  0  0  0  0  0  0  0  0
   47.3912    9.6922    1.1108 C   0  0  0  0  0  0  0  0  0  0  0  0
   46.3425    9.0010    0.4896 C   0  0  0  0  0  0  0  0  0  0  0  0
   46.4669    7.9890    0.2120 H   0  0  0  0  0  0  0  0  0  0  0  0
   45.1374    9.6430    0.2141 C   0  0  0  0  0  0  0  0  0  0  0  0
   44.3533    9.1081   -0.2574 H   0  0  0  0  0  0  0  0  0  0  0  0
   44.9490   10.9800    0.5490 C   0  0  0  0  0  0  0  0  0  0  0  0
   44.0218   11.4495    0.3436 H   0  0  0  0  0  0  0  0  0  0  0  0
   47.4770   13.3320    3.9450 Br  0  0  0  0  0  0  0  0  0  0  0  0
   46.0630   16.1740    3.6490 O   0  0  0  0  0  0  0  0  0  0  0  0
   47.2490   16.9320    3.4120 C   0  0  0  0  0  0  0  0  0  0  0  0
   47.0569   17.6950    2.6577 H   0  0  0  0  0  0  0  0  0  0  0  0
   48.0471   16.2740    3.0682 H   0  0  0  0  0  0  0  0  0  0  0  0
   47.6510   17.5920    4.7270 C   0  0  0  0  0  0  0  0  0  0  0  0
   46.8770   17.5250    5.6970 O   0  0  0  0  0  0  0  0  0  0  0  0
   48.7320   18.1660    4.7830 O   0  5  0  0  0  0  0  0  0  0  0  0
   48.6080    9.0675    1.4043 N   0  0  0  0  0  0  0  0  0  0  0  0
   48.5756    7.6923    1.9065 C   0  0  0  0  0  0  0  0  0  0  0  0
   48.0091    7.6535    2.8398 H   0  0  0  0  0  0  0  0  0  0  0  0
   48.1300    7.0128    1.1788 H   0  0  0  0  0  0  0  0  0  0  0  0
   49.2227    9.6706    1.9711 H   0  0  0  0  0  0  0  0  0  0  0  0
   52.2188    5.5030    1.8757 N   0  0  0  0  0  0  0  0  0  0  0  0
   52.2770    6.7785    1.1537 C   0  0  0  0  0  0  0  0  0  0  0  0
   52.8309    6.6665    0.2291 H   0  0  0  0  0  0  0  0  0  0  0  0
   52.7182    7.5349    1.7910 H   0  0  0  0  0  0  0  0  0  0  0  0
   50.8260    7.1789    0.8292 C   0  0  0  0  0  0  0  0  0  0  0  0
   50.8389    8.1439    0.3205 H   0  0  0  0  0  0  0  0  0  0  0  0
   50.3612    6.4498    0.1688 H   0  0  0  0  0  0  0  0  0  0  0  0
   50.0400    7.2880    2.1564 C   0  0  0  0  0  0  0  0  0  0  0  0
   50.5060    8.0422    2.7944 H   0  0  0  0  0  0  0  0  0  0  0  0
   50.0664    5.9307    2.8895 C   0  0  0  0  0  0  0  0  0  0  0  0
   49.5865    5.1598    2.2889 H   0  0  0  0  0  0  0  0  0  0  0  0
   49.5401    6.0129    3.8415 H   0  0  0  0  0  0  0  0  0  0  0  0
   51.5352    5.5612    3.1711 C   0  0  0  0  0  0  0  0  0  0  0  0
   51.5726    4.5970    3.6642 H   0  0  0  0  0  0  0  0  0  0  0  0
   51.9851    6.3351    3.7811 H   0  0  0  0  0  0  0  0  0  0  0  0
   52.5560    4.0579    1.1260 S   0  0  0  0  0  0  0  0  0  0  0  0
   51.0614    3.6206    0.2453 C   0  0  0  0  0  0  0  0  0  0  0  0
   50.2222    3.5204    0.9134 H   0  0  0  0  0  0  0  0  0  0  0  0
   50.8054    4.3625   -0.4936 H   0  0  0  0  0  0  0  0  0  0  0  0
   53.5879    4.2710    0.1696 O   0  0  0  0  0  0  0  0  0  0  0  0
   52.7900    3.0715    2.1239 O   0  0  0  0  0  0  0  0  0  0  0  0
   51.0728   -0.0507   -2.0135 C   0  0  0  0  0  0  0  0  0  0  0  0
   51.0754   -0.9517   -2.5718 H   0  0  0  0  0  0  0  0  0  0  0  0
   50.4062    0.0114   -0.7943 C   0  0  0  0  0  0  0  0  0  0  0  0
   49.9027   -0.8442   -0.4225 H   0  0  0  0  0  0  0  0  0  0  0  0
   50.4040    1.1937   -0.0605 C   0  0  0  0  0  0  0  0  0  0  0  0
   49.9001    1.2258    0.8716 H   0  0  0  0  0  0  0  0  0  0  0  0
   51.0644    2.3231   -0.5449 C   0  0  0  0  0  0  0  0  0  0  0  0
   51.7402    2.2513   -1.7623 C   0  0  0  0  0  0  0  0  0  0  0  0
   52.2639    3.0966   -2.1330 H   0  0  0  0  0  0  0  0  0  0  0  0
   51.7420    1.0690   -2.4958 C   0  0  0  0  0  0  0  0  0  0  0  0
   52.2579    1.0205   -3.4206 H   0  0  0  0  0  0  0  0  0  0  0  0
  1  2  1  0  0  0  0
  1  5  1  0  0  0  0
  2  3  2  0  0  0  0
  2  6  1  0  0  0  0
  3  4  1  0  0  0  0
  3 20  1  0  0  0  0
  4  5  2  0  0  0  0
  4 19  1  0  0  0  0
  5  9  1  0  0  0  0
  6  7  2  0  0  0  0
  6  8  1  0  0  0  0
  9 10  1  0  0  0  0
  9 17  2  0  0  0  0
 10 11  1  0  0  0  0
 10 12  2  0  0  0  0
 12 13  1  0  0  0  0
 12 27  1  0  0  0  0
 13 14  1  0  0  0  0
 13 15  2  0  0  0  0
 15 16  1  0  0  0  0
 15 17  1  0  0  0  0
 17 18  1  0  0  0  0
 20 21  1  0  0  0  0
 21 22  1  0  0  0  0
 21 23  1  0  0  0  0
 21 24  1  0  0  0  0
 24 25  2  0  0  0  0
 24 26  1  0  0  0  0
 27 28  1  0  0  0  0
 27 31  1  0  0  0  0
 28 29  1  0  0  0  0
 28 30  1  0  0  0  0
 28 39  1  0  0  0  0
 32 33  1  0  0  0  0
 32 44  1  0  0  0  0
 32 47  1  0  0  0  0
 33 34  1  0  0  0  0
 33 35  1  0  0  0  0
 33 36  1  0  0  0  0
 36 37  1  0  0  0  0
 36 38  1  0  0  0  0
 36 39  1  0  0  0  0
 39 40  1  0  0  0  0
 39 41  1  0  0  0  0
 41 42  1  0  0  0  0
 41 43  1  0  0  0  0
 41 44  1  0  0  0  0
 44 45  1  0  0  0  0
 44 46  1  0  0  0  0
 47 48  1  0  0  0  0
 47 51  2  0  0  0  0
 47 52  2  0  0  0  0
 48 49  1  0  0  0  0
 48 50  1  0  0  0  0
 48 59  1  0  0  0  0
 53 54  1  0  0  0  0
 53 55  1  0  0  0  0
 53 62  2  0  0  0  0
 55 56  1  0  0  0  0
 55 57  2  0  0  0  0
 57 58  1  0  0  0  0
 57 59  1  0  0  0  0
 59 60  2  0  0  0  0
 60 61  1  0  0  0  0
 60 62  1  0  0  0  0
 62 63  1  0  0  0  0
M  CHG  1   8  -1
M  CHG  1  26  -1
M  END
$$$$
ptp1b_wilson_38
  MOE2024           3D
ptp1b_wilson_38
 60 63  0  0  0  0  0  0  0  0999 V2000
   44.6510   14.0740    0.6210 S   0  0  0  0  0  0  0  0  0  0  0  0
   44.7900   15.4820    1.5710 C   0  0  0  0  0  0  0  0  0  0  0  0
   45.6940   15.2460    2.6400 C   0  0  0  0  0  0  0  0  0  0  0  0
   46.2290   13.9270    2.6200 C   0  0  0  0  0  0  0  0  0  0  0  0
   45.7340   13.1350    1.5470 C   0  0  0  0  0  0  0  0  0  0  0  0
   44.0570   16.6430    1.2480 C   0  0  0  0  0  0  0  0  0  0  0  0
   43.4980   16.6800    0.1500 O   0  0  0  0  0  0  0  0  0  0  0  0
   43.9810   17.5810    2.0360 O   0  5  0  0  0  0  0  0  0  0  0  0
   46.0160   11.7110    1.1830 C   0  0  0  0  0  0  0  0  0  0  0  0
   47.2610   11.0370    1.4450 C   0  0  0  0  0  0  0  0  0  0  0  0
   48.0796   11.5530    1.8638 H   0  0  0  0  0  0  0  0  0  0  0  0
   47.3939    9.6943    1.1031 C   0  0  0  0  0  0  0  0  0  0  0  0
   46.3461    9.0043    0.4788 C   0  0  0  0  0  0  0  0  0  0  0  0
   46.4722    7.9935    0.1968 H   0  0  0  0  0  0  0  0  0  0  0  0
   45.1394    9.6449    0.2079 C   0  0  0  0  0  0  0  0  0  0  0  0
   44.3560    9.1104   -0.2651 H   0  0  0  0  0  0  0  0  0  0  0  0
   44.9490   10.9800    0.5490 C   0  0  0  0  0  0  0  0  0  0  0  0
   44.0207   11.4487    0.3468 H   0  0  0  0  0  0  0  0  0  0  0  0
   47.4770   13.3320    3.9450 Br  0  0  0  0  0  0  0  0  0  0  0  0
   46.0630   16.1740    3.6490 O   0  0  0  0  0  0  0  0  0  0  0  0
   47.2490   16.9320    3.4120 C   0  0  0  0  0  0  0  0  0  0  0  0
   47.0569   17.6950    2.6577 H   0  0  0  0  0  0  0  0  0  0  0  0
   48.0471   16.2740    3.0682 H   0  0  0  0  0  0  0  0  0  0  0  0
   47.6510   17.5920    4.7270 C   0  0  0  0  0  0  0  0  0  0  0  0
   46.8770   17.5250    5.6970 O   0  0  0  0  0  0  0  0  0  0  0  0
   48.7320   18.1660    4.7830 O   0  5  0  0  0  0  0  0  0  0  0  0
   48.6127    9.0716    1.3924 N   0  0  0  0  0  0  0  0  0  0  0  0
   48.6001    7.6656    1.8082 C   0  0  0  0  0  0  0  0  0  0  0  0
   47.9711    7.5488    2.6935 H   0  0  0  0  0  0  0  0  0  0  0  0
   48.2352    7.0170    1.0099 H   0  0  0  0  0  0  0  0  0  0  0  0
   49.2142    9.6516    1.9949 H   0  0  0  0  0  0  0  0  0  0  0  0
   52.2236    5.5509    1.9055 N   0  0  0  0  0  0  0  0  0  0  0  0
   52.3538    6.8505    1.2488 C   0  0  0  0  0  0  0  0  0  0  0  0
   52.9600    6.7724    0.3543 H   0  0  0  0  0  0  0  0  0  0  0  0
   52.7457    7.5828    1.9437 H   0  0  0  0  0  0  0  0  0  0  0  0
   50.9182    7.2400    0.8542 C   0  0  0  0  0  0  0  0  0  0  0  0
   50.9344    8.2136    0.3633 H   0  0  0  0  0  0  0  0  0  0  0  0
   50.5151    6.5019    0.1583 H   0  0  0  0  0  0  0  0  0  0  0  0
   50.0567    7.2985    2.1408 C   0  0  0  0  0  0  0  0  0  0  0  0
   50.4633    8.0516    2.8186 H   0  0  0  0  0  0  0  0  0  0  0  0
   50.0773    5.9271    2.8546 C   0  0  0  0  0  0  0  0  0  0  0  0
   49.6568    5.1540    2.2078 H   0  0  0  0  0  0  0  0  0  0  0  0
   49.4993    5.9740    3.7780 H   0  0  0  0  0  0  0  0  0  0  0  0
   51.5397    5.5804    3.1932 C   0  0  0  0  0  0  0  0  0  0  0  0
   51.5739    4.6048    3.6631 H   0  0  0  0  0  0  0  0  0  0  0  0
   51.9594    6.3552    3.8228 H   0  0  0  0  0  0  0  0  0  0  0  0
   52.5331    4.1254    1.1163 S   0  0  0  0  0  0  0  0  0  0  0  0
   51.5326    3.1763    1.4725 O   0  0  0  0  0  0  0  0  0  0  0  0
   52.7067    4.3878   -0.2725 O   0  0  0  0  0  0  0  0  0  0  0  0
   56.5616    2.7105    2.8424 C   0  0  0  0  0  0  0  0  0  0  0  0
   57.4896    2.3842    3.2387 H   0  0  0  0  0  0  0  0  0  0  0  0
   56.5344    3.5378    1.7253 C   0  0  0  0  0  0  0  0  0  0  0  0
   57.4421    3.8408    1.2681 H   0  0  0  0  0  0  0  0  0  0  0  0
   55.3162    3.9655    1.2049 C   0  0  0  0  0  0  0  0  0  0  0  0
   55.2969    4.5911    0.3481 H   0  0  0  0  0  0  0  0  0  0  0  0
   54.1117    3.5762    1.7985 C   0  0  0  0  0  0  0  0  0  0  0  0
   54.1527    2.7347    2.9147 C   0  0  0  0  0  0  0  0  0  0  0  0
   53.2448    2.4184    3.3634 H   0  0  0  0  0  0  0  0  0  0  0  0
   55.3707    2.3073    3.4361 C   0  0  0  0  0  0  0  0  0  0  0  0
   55.3905    1.6710    4.2844 H   0  0  0  0  0  0  0  0  0  0  0  0
  1  2  1  0  0  0  0
  1  5  1  0  0  0  0
  2  3  2  0  0  0  0
  2  6  1  0  0  0  0
  3  4  1  0  0  0  0
  3 20  1  0  0  0  0
  4  5  2  0  0  0  0
  4 19  1  0  0  0  0
  5  9  1  0  0  0  0
  6  7  2  0  0  0  0
  6  8  1  0  0  0  0
  9 10  1  0  0  0  0
  9 17  2  0  0  0  0
 10 11  1  0  0  0  0
 10 12  2  0  0  0  0
 12 13  1  0  0  0  0
 12 27  1  0  0  0  0
 13 14  1  0  0  0  0
 13 15  2  0  0  0  0
 15 16  1  0  0  0  0
 15 17  1  0  0  0  0
 17 18  1  0  0  0  0
 20 21  1  0  0  0  0
 21 22  1  0  0  0  0
 21 23  1  0  0  0  0
 21 24  1  0  0  0  0
 24 25  2  0  0  0  0
 24 26  1  0  0  0  0
 27 28  1  0  0  0  0
 27 31  1  0  0  0  0
 28 29  1  0  0  0  0
 28 30  1  0  0  0  0
 28 39  1  0  0  0  0
 32 33  1  0  0  0  0
 32 44  1  0  0  0  0
 32 47  1  0  0  0  0
 33 34  1  0  0  0  0
 33 35  1  0  0  0  0
 33 36  1  0  0  0  0
 36 37  1  0  0  0  0
 36 38  1  0  0  0  0
 36 39  1  0  0  0  0
 39 40  1  0  0  0  0
 39 41  1  0  0  0  0
 41 42  1  0  0  0  0
 41 43  1  0  0  0  0
 41 44  1  0  0  0  0
 44 45  1  0  0  0  0
 44 46  1  0  0  0  0
 47 48  2  0  0  0  0
 47 49  2  0  0  0  0
 47 56  1  0  0  0  0
 50 51  1  0  0  0  0
 50 52  1  0  0  0  0
 50 59  2  0  0  0  0
 52 53  1  0  0  0  0
 52 54  2  0  0  0  0
 54 55  1  0  0  0  0
 54 56  1  0  0  0  0
 56 57  2  0  0  0  0
 57 58  1  0  0  0  0
 57 59  1  0  0  0  0
 59 60  1  0  0  0  0
M  CHG  1   8  -1
M  CHG  1  26  -1
M  END
$$$$
ptp1b_wilson_39
  MOE2024           3D
ptp1b_wilson_39
 61 64  0  0  0  0  0  0  0  0999 V2000
   44.6510   14.0740    0.6210 S   0  0  0  0  0  0  0  0  0  0  0  0
   44.7900   15.4820    1.5710 C   0  0  0  0  0  0  0  0  0  0  0  0
   45.6940   15.2460    2.6400 C   0  0  0  0  0  0  0  0  0  0  0  0
   46.2290   13.9270    2.6200 C   0  0  0  0  0  0  0  0  0  0  0  0
   45.7340   13.1350    1.5470 C   0  0  0  0  0  0  0  0  0  0  0  0
   44.0570   16.6430    1.2480 C   0  0  0  0  0  0  0  0  0  0  0  0
   43.4980   16.6800    0.1500 O   0  0  0  0  0  0  0  0  0  0  0  0
   43.9810   17.5810    2.0360 O   0  5  0  0  0  0  0  0  0  0  0  0
   46.0160   11.7110    1.1830 C   0  0  0  0  0  0  0  0  0  0  0  0
   47.2610   11.0370    1.4450 C   0  0  0  0  0  0  0  0  0  0  0  0
   48.0792   11.5513    1.8666 H   0  0  0  0  0  0  0  0  0  0  0  0
   47.3945    9.6953    1.0973 C   0  0  0  0  0  0  0  0  0  0  0  0
   46.3481    9.0081    0.4675 C   0  0  0  0  0  0  0  0  0  0  0  0
   46.4759    8.0011    0.1743 H   0  0  0  0  0  0  0  0  0  0  0  0
   45.1404    9.6475    0.2012 C   0  0  0  0  0  0  0  0  0  0  0  0
   44.3576    9.1146   -0.2747 H   0  0  0  0  0  0  0  0  0  0  0  0
   44.9490   10.9800    0.5490 C   0  0  0  0  0  0  0  0  0  0  0  0
   44.0198   11.4483    0.3499 H   0  0  0  0  0  0  0  0  0  0  0  0
   47.4770   13.3320    3.9450 Br  0  0  0  0  0  0  0  0  0  0  0  0
   46.0630   16.1740    3.6490 O   0  0  0  0  0  0  0  0  0  0  0  0
   47.2490   16.9320    3.4120 C   0  0  0  0  0  0  0  0  0  0  0  0
   47.0569   17.6950    2.6577 H   0  0  0  0  0  0  0  0  0  0  0  0
   48.0471   16.2740    3.0682 H   0  0  0  0  0  0  0  0  0  0  0  0
   47.6510   17.5920    4.7270 C   0  0  0  0  0  0  0  0  0  0  0  0
   46.8770   17.5250    5.6970 O   0  0  0  0  0  0  0  0  0  0  0  0
   48.7320   18.1660    4.7830 O   0  5  0  0  0  0  0  0  0  0  0  0
   48.6139    9.0700    1.3797 N   0  0  0  0  0  0  0  0  0  0  0  0
   48.6019    7.6785    1.8449 C   0  0  0  0  0  0  0  0  0  0  0  0
   48.1463    7.6265    2.8359 H   0  0  0  0  0  0  0  0  0  0  0  0
   48.0597    7.0246    1.1613 H   0  0  0  0  0  0  0  0  0  0  0  0
   49.2374    9.6631    1.9462 H   0  0  0  0  0  0  0  0  0  0  0  0
   52.0383    5.3052    1.2933 N   0  0  0  0  0  0  0  0  0  0  0  0
   52.1192    6.6019    0.5968 C   0  0  0  0  0  0  0  0  0  0  0  0
   52.5303    6.4803   -0.3981 H   0  0  0  0  0  0  0  0  0  0  0  0
   52.6987    7.3011    1.1853 H   0  0  0  0  0  0  0  0  0  0  0  0
   50.6671    7.1054    0.4846 C   0  0  0  0  0  0  0  0  0  0  0  0
   50.6651    8.0773   -0.0103 H   0  0  0  0  0  0  0  0  0  0  0  0
   50.0824    6.4063   -0.1160 H   0  0  0  0  0  0  0  0  0  0  0  0
   50.0712    7.2254    1.9091 C   0  0  0  0  0  0  0  0  0  0  0  0
   50.6424    7.9581    2.4824 H   0  0  0  0  0  0  0  0  0  0  0  0
   50.1332    5.8617    2.6343 C   0  0  0  0  0  0  0  0  0  0  0  0
   49.5462    5.1157    2.0941 H   0  0  0  0  0  0  0  0  0  0  0  0
   49.7441    5.9594    3.6484 H   0  0  0  0  0  0  0  0  0  0  0  0
   51.6070    5.4175    2.6997 C   0  0  0  0  0  0  0  0  0  0  0  0
   51.6659    4.4735    3.2225 H   0  0  0  0  0  0  0  0  0  0  0  0
   52.1894    6.1822    3.1986 H   0  0  0  0  0  0  0  0  0  0  0  0
   51.8912    4.1574    0.5360 C   0  0  0  0  0  0  0  0  0  0  0  0
   51.8504    2.9882    1.2474 N   0  0  0  0  0  0  0  0  0  0  0  0
   52.1793    3.0759    2.2085 H   0  0  0  0  0  0  0  0  0  0  0  0
   51.8238    4.1867   -0.6880 O   0  0  0  0  0  0  0  0  0  0  0  0
   50.8908   -0.8850   -0.0393 C   0  0  0  0  0  0  0  0  0  0  0  0
   50.6521   -1.8698   -0.3508 H   0  0  0  0  0  0  0  0  0  0  0  0
   51.7334   -0.6843    1.0525 C   0  0  0  0  0  0  0  0  0  0  0  0
   52.1343   -1.5185    1.5695 H   0  0  0  0  0  0  0  0  0  0  0  0
   52.0507    0.6066    1.4623 C   0  0  0  0  0  0  0  0  0  0  0  0
   52.6940    0.7590    2.2888 H   0  0  0  0  0  0  0  0  0  0  0  0
   51.5211    1.6986    0.7728 C   0  0  0  0  0  0  0  0  0  0  0  0
   50.6722    1.5026   -0.3205 C   0  0  0  0  0  0  0  0  0  0  0  0
   50.2628    2.3300   -0.8387 H   0  0  0  0  0  0  0  0  0  0  0  0
   50.3622    0.2079   -0.7237 C   0  0  0  0  0  0  0  0  0  0  0  0
   49.7226    0.0524   -1.5545 H   0  0  0  0  0  0  0  0  0  0  0  0
  1  2  1  0  0  0  0
  1  5  1  0  0  0  0
  2  3  2  0  0  0  0
  2  6  1  0  0  0  0
  3  4  1  0  0  0  0
  3 20  1  0  0  0  0
  4  5  2  0  0  0  0
  4 19  1  0  0  0  0
  5  9  1  0  0  0  0
  6  7  2  0  0  0  0
  6  8  1  0  0  0  0
  9 10  1  0  0  0  0
  9 17  2  0  0  0  0
 10 11  1  0  0  0  0
 10 12  2  0  0  0  0
 12 13  1  0  0  0  0
 12 27  1  0  0  0  0
 13 14  1  0  0  0  0
 13 15  2  0  0  0  0
 15 16  1  0  0  0  0
 15 17  1  0  0  0  0
 17 18  1  0  0  0  0
 20 21  1  0  0  0  0
 21 22  1  0  0  0  0
 21 23  1  0  0  0  0
 21 24  1  0  0  0  0
 24 25  2  0  0  0  0
 24 26  1  0  0  0  0
 27 28  1  0  0  0  0
 27 31  1  0  0  0  0
 28 29  1  0  0  0  0
 28 30  1  0  0  0  0
 28 39  1  0  0  0  0
 32 33  1  0  0  0  0
 32 44  1  0  0  0  0
 32 47  1  0  0  0  0
 33 34  1  0  0  0  0
 33 35  1  0  0  0  0
 33 36  1  0  0  0  0
 36 37  1  0  0  0  0
 36 38  1  0  0  0  0
 36 39  1  0  0  0  0
 39 40  1  0  0  0  0
 39 41  1  0  0  0  0
 41 42  1  0  0  0  0
 41 43  1  0  0  0  0
 41 44  1  0  0  0  0
 44 45  1  0  0  0  0
 44 46  1  0  0  0  0
 47 48  1  0  0  0  0
 47 50  2  0  0  0  0
 48 49  1  0  0  0  0
 48 57  1  0  0  0  0
 51 52  1  0  0  0  0
 51 53  1  0  0  0  0
 51 60  2  0  0  0  0
 53 54  1  0  0  0  0
 53 55  2  0  0  0  0
 55 56  1  0  0  0  0
 55 57  1  0  0  0  0
 57 58  2  0  0  0  0
 58 59  1  0  0  0  0
 58 60  1  0  0  0  0
 60 61  1  0  0  0  0
M  CHG  1   8  -1
M  CHG  1  26  -1
M  END
$$$$
ptp1b_wilson_40
  MOE2024           3D
ptp1b_wilson_40
 60 63  0  0  0  0  0  0  0  0999 V2000
   44.6510   14.0740    0.6210 S   0  0  0  0  0  0  0  0  0  0  0  0
   44.7900   15.4820    1.5710 C   0  0  0  0  0  0  0  0  0  0  0  0
   45.6940   15.2460    2.6400 C   0  0  0  0  0  0  0  0  0  0  0  0
   46.2290   13.9270    2.6200 C   0  0  0  0  0  0  0  0  0  0  0  0
   45.7340   13.1350    1.5470 C   0  0  0  0  0  0  0  0  0  0  0  0
   44.0570   16.6430    1.2480 C   0  0  0  0  0  0  0  0  0  0  0  0
   43.4980   16.6800    0.1500 O   0  0  0  0  0  0  0  0  0  0  0  0
   43.9810   17.5810    2.0360 O   0  5  0  0  0  0  0  0  0  0  0  0
   46.0160   11.7110    1.1830 C   0  0  0  0  0  0  0  0  0  0  0  0
   47.2610   11.0370    1.4450 C   0  0  0  0  0  0  0  0  0  0  0  0
   48.0849   11.5434    1.8679 H   0  0  0  0  0  0  0  0  0  0  0  0
   47.3821    9.6967    1.1038 C   0  0  0  0  0  0  0  0  0  0  0  0
   46.3375    8.9996    0.4893 C   0  0  0  0  0  0  0  0  0  0  0  0
   46.4606    7.9852    0.2166 H   0  0  0  0  0  0  0  0  0  0  0  0
   45.1319    9.6423    0.2140 C   0  0  0  0  0  0  0  0  0  0  0  0
   44.3457    9.1081   -0.2553 H   0  0  0  0  0  0  0  0  0  0  0  0
   44.9490   10.9800    0.5490 C   0  0  0  0  0  0  0  0  0  0  0  0
   44.0223   11.4514    0.3444 H   0  0  0  0  0  0  0  0  0  0  0  0
   47.4770   13.3320    3.9450 Br  0  0  0  0  0  0  0  0  0  0  0  0
   46.0630   16.1740    3.6490 O   0  0  0  0  0  0  0  0  0  0  0  0
   47.2490   16.9320    3.4120 C   0  0  0  0  0  0  0  0  0  0  0  0
   47.0569   17.6950    2.6577 H   0  0  0  0  0  0  0  0  0  0  0  0
   48.0471   16.2740    3.0682 H   0  0  0  0  0  0  0  0  0  0  0  0
   47.6510   17.5920    4.7270 C   0  0  0  0  0  0  0  0  0  0  0  0
   46.8770   17.5250    5.6970 O   0  0  0  0  0  0  0  0  0  0  0  0
   48.7320   18.1660    4.7830 O   0  5  0  0  0  0  0  0  0  0  0  0
   48.5778    9.0831    1.3833 O   0  0  0  0  0  0  0  0  0  0  0  0
   48.6541    7.7225    1.8745 C   0  0  0  0  0  0  0  0  0  0  0  0
   48.2475    7.6816    2.8860 H   0  0  0  0  0  0  0  0  0  0  0  0
   48.1127    7.0334    1.2270 H   0  0  0  0  0  0  0  0  0  0  0  0
   52.1915    5.5508    1.2109 N   0  0  0  0  0  0  0  0  0  0  0  0
   52.1590    6.8324    0.4826 C   0  0  0  0  0  0  0  0  0  0  0  0
   52.5290    6.7106   -0.5283 H   0  0  0  0  0  0  0  0  0  0  0  0
   52.7211    7.5809    1.0260 H   0  0  0  0  0  0  0  0  0  0  0  0
   50.6740    7.2426    0.4326 C   0  0  0  0  0  0  0  0  0  0  0  0
   50.5867    8.2022   -0.0785 H   0  0  0  0  0  0  0  0  0  0  0  0
   50.1067    6.4935   -0.1228 H   0  0  0  0  0  0  0  0  0  0  0  0
   50.1464    7.3592    1.8823 C   0  0  0  0  0  0  0  0  0  0  0  0
   50.6916    8.1481    2.4052 H   0  0  0  0  0  0  0  0  0  0  0  0
   50.3294    6.0259    2.6405 C   0  0  0  0  0  0  0  0  0  0  0  0
   49.7616    5.2294    2.1547 H   0  0  0  0  0  0  0  0  0  0  0  0
   49.9894    6.1329    3.6712 H   0  0  0  0  0  0  0  0  0  0  0  0
   51.8298    5.6773    2.6362 C   0  0  0  0  0  0  0  0  0  0  0  0
   51.9790    4.7555    3.1801 H   0  0  0  0  0  0  0  0  0  0  0  0
   52.3869    6.4923    3.0817 H   0  0  0  0  0  0  0  0  0  0  0  0
   52.0527    4.3797    0.4892 C   0  0  0  0  0  0  0  0  0  0  0  0
   52.0863    3.2288    1.2299 N   0  0  0  0  0  0  0  0  0  0  0  0
   52.4675    3.3501    2.1680 H   0  0  0  0  0  0  0  0  0  0  0  0
   51.9248    4.3753   -0.7304 O   0  0  0  0  0  0  0  0  0  0  0  0
   51.1012   -0.6899    0.1125 C   0  0  0  0  0  0  0  0  0  0  0  0
   50.8574   -1.6859   -0.1570 H   0  0  0  0  0  0  0  0  0  0  0  0
   51.9983   -0.4489    1.1514 C   0  0  0  0  0  0  0  0  0  0  0  0
   52.4350   -1.2634    1.6705 H   0  0  0  0  0  0  0  0  0  0  0  0
   52.3226    0.8565    1.5060 C   0  0  0  0  0  0  0  0  0  0  0  0
   53.0067    1.0394    2.2926 H   0  0  0  0  0  0  0  0  0  0  0  0
   51.7457    1.9223    0.8134 C   0  0  0  0  0  0  0  0  0  0  0  0
   50.8411    1.6858   -0.2259 C   0  0  0  0  0  0  0  0  0  0  0  0
   50.3945    2.4930   -0.7453 H   0  0  0  0  0  0  0  0  0  0  0  0
   50.5244    0.3770   -0.5738 C   0  0  0  0  0  0  0  0  0  0  0  0
   49.8425    0.1913   -1.3640 H   0  0  0  0  0  0  0  0  0  0  0  0
  1  2  1  0  0  0  0
  1  5  1  0  0  0  0
  2  3  2  0  0  0  0
  2  6  1  0  0  0  0
  3  4  1  0  0  0  0
  3 20  1  0  0  0  0
  4  5  2  0  0  0  0
  4 19  1  0  0  0  0
  5  9  1  0  0  0  0
  6  7  2  0  0  0  0
  6  8  1  0  0  0  0
  9 10  1  0  0  0  0
  9 17  2  0  0  0  0
 10 11  1  0  0  0  0
 10 12  2  0  0  0  0
 12 13  1  0  0  0  0
 12 27  1  0  0  0  0
 13 14  1  0  0  0  0
 13 15  2  0  0  0  0
 15 16  1  0  0  0  0
 15 17  1  0  0  0  0
 17 18  1  0  0  0  0
 20 21  1  0  0  0  0
 21 22  1  0  0  0  0
 21 23  1  0  0  0  0
 21 24  1  0  0  0  0
 24 25  2  0  0  0  0
 24 26  1  0  0  0  0
 27 28  1  0  0  0  0
 28 29  1  0  0  0  0
 28 30  1  0  0  0  0
 28 38  1  0  0  0  0
 31 32  1  0  0  0  0
 31 43  1  0  0  0  0
 31 46  1  0  0  0  0
 32 33  1  0  0  0  0
 32 34  1  0  0  0  0
 32 35  1  0  0  0  0
 35 36  1  0  0  0  0
 35 37  1  0  0  0  0
 35 38  1  0  0  0  0
 38 39  1  0  0  0  0
 38 40  1  0  0  0  0
 40 41  1  0  0  0  0
 40 42  1  0  0  0  0
 40 43  1  0  0  0  0
 43 44  1  0  0  0  0
 43 45  1  0  0  0  0
 46 47  1  0  0  0  0
 46 49  2  0  0  0  0
 47 48  1  0  0  0  0
 47 56  1  0  0  0  0
 50 51  1  0  0  0  0
 50 52  1  0  0  0  0
 50 59  2  0  0  0  0
 52 53  1  0  0  0  0
 52 54  2  0  0  0  0
 54 55  1  0  0  0  0
 54 56  1  0  0  0  0
 56 57  2  0  0  0  0
 57 58  1  0  0  0  0
 57 59  1  0  0  0  0
 59 60  1  0  0  0  0
M  CHG  1   8  -1
M  CHG  1  26  -1
M  END
$$$$
ptp1b_wilson_41
  MOE2024           3D
ptp1b_wilson_41
 60 63  0  0  0  0  0  0  0  0999 V2000
   44.6510   14.0740    0.6210 S   0  0  0  0  0  0  0  0  0  0  0  0
   44.7900   15.4820    1.5710 C   0  0  0  0  0  0  0  0  0  0  0  0
   45.6940   15.2460    2.6400 C   0  0  0  0  0  0  0  0  0  0  0  0
   46.2290   13.9270    2.6200 C   0  0  0  0  0  0  0  0  0  0  0  0
   45.7340   13.1350    1.5470 C   0  0  0  0  0  0  0  0  0  0  0  0
   44.0570   16.6430    1.2480 C   0  0  0  0  0  0  0  0  0  0  0  0
   43.4980   16.6800    0.1500 O   0  0  0  0  0  0  0  0  0  0  0  0
   43.9810   17.5810    2.0360 O   0  5  0  0  0  0  0  0  0  0  0  0
   46.0160   11.7110    1.1830 C   0  0  0  0  0  0  0  0  0  0  0  0
   47.2610   11.0370    1.4450 C   0  0  0  0  0  0  0  0  0  0  0  0
   48.0773   11.5626    1.9181 H   0  0  0  0  0  0  0  0  0  0  0  0
   47.4050    9.6640    1.0720 C   0  0  0  0  0  0  0  0  0  0  0  0
   46.3290    8.9560    0.4400 C   0  0  0  0  0  0  0  0  0  0  0  0
   46.4561    7.9192    0.1655 H   0  0  0  0  0  0  0  0  0  0  0  0
   45.0950    9.6130    0.1730 C   0  0  0  0  0  0  0  0  0  0  0  0
   44.2837    9.0851   -0.3060 H   0  0  0  0  0  0  0  0  0  0  0  0
   44.9490   10.9800    0.5490 C   0  0  0  0  0  0  0  0  0  0  0  0
   44.0127   11.4815    0.3532 H   0  0  0  0  0  0  0  0  0  0  0  0
   47.4770   13.3320    3.9450 Br  0  0  0  0  0  0  0  0  0  0  0  0
   46.0630   16.1740    3.6490 O   0  0  0  0  0  0  0  0  0  0  0  0
   47.2490   16.9320    3.4120 C   0  0  0  0  0  0  0  0  0  0  0  0
   47.0569   17.6950    2.6577 H   0  0  0  0  0  0  0  0  0  0  0  0
   48.0471   16.2740    3.0682 H   0  0  0  0  0  0  0  0  0  0  0  0
   47.6510   17.5920    4.7270 C   0  0  0  0  0  0  0  0  0  0  0  0
   46.8770   17.5250    5.6970 O   0  0  0  0  0  0  0  0  0  0  0  0
   48.7320   18.1660    4.7830 O   0  5  0  0  0  0  0  0  0  0  0  0
   48.6210    8.9650    1.3420 N   0  0  0  0  0  0  0  0  0  0  0  0
   49.3906    9.5529    1.0555 H   0  0  0  0  0  0  0  0  0  0  0  0
   49.1550    7.7650    1.8570 C   0  0  0  0  0  0  0  0  0  0  0  0
   48.9897    6.9563    1.1451 H   0  0  0  0  0  0  0  0  0  0  0  0
   50.6800    7.8220    2.0380 C   0  0  0  0  0  0  0  0  0  0  0  0
   50.9377    8.6089    2.7469 H   0  0  0  0  0  0  0  0  0  0  0  0
   51.1574    8.0259    1.0795 H   0  0  0  0  0  0  0  0  0  0  0  0
   51.1219    6.4546    2.5819 C   0  0  0  0  0  0  0  0  0  0  0  0
   52.1895    6.5079    2.7618 H   0  0  0  0  0  0  0  0  0  0  0  0
   50.8608    5.6752    1.8764 H   0  0  0  0  0  0  0  0  0  0  0  0
   50.4021    6.2659    3.8509 N   0  0  0  0  0  0  0  0  0  0  0  0
   48.9432    6.1189    3.7041 C   0  0  0  0  0  0  0  0  0  0  0  0
   48.4849    5.9425    4.6705 H   0  0  0  0  0  0  0  0  0  0  0  0
   48.7082    5.3423    2.9868 H   0  0  0  0  0  0  0  0  0  0  0  0
   48.4240    7.4700    3.1930 C   0  0  0  0  0  0  0  0  0  0  0  0
   47.3494    7.4380    3.0131 H   0  0  0  0  0  0  0  0  0  0  0  0
   48.6494    8.2626    3.9065 H   0  0  0  0  0  0  0  0  0  0  0  0
   51.1716    5.5175    5.1178 S   0  0  0  0  0  0  0  0  0  0  0  0
   51.2089    3.7885    4.6644 C   0  0  0  0  0  0  0  0  0  0  0  0
   51.7484    3.6322    3.7435 H   0  0  0  0  0  0  0  0  0  0  0  0
   50.2144    3.3935    4.5271 H   0  0  0  0  0  0  0  0  0  0  0  0
   52.5117    5.9890    5.1844 O   0  0  0  0  0  0  0  0  0  0  0  0
   50.3742    5.6540    6.2872 O   0  0  0  0  0  0  0  0  0  0  0  0
   53.0548    1.0666    7.4521 C   0  0  0  0  0  0  0  0  0  0  0  0
   53.7957   -0.0324    8.5694 Cl  0  0  0  0  0  0  0  0  0  0  0  0
   53.8215    1.6686    6.4543 C   0  0  0  0  0  0  0  0  0  0  0  0
   54.8572    1.4556    6.3905 H   0  0  0  0  0  0  0  0  0  0  0  0
   53.2240    2.5468    5.5565 C   0  0  0  0  0  0  0  0  0  0  0  0
   53.8162    3.0105    4.8080 H   0  0  0  0  0  0  0  0  0  0  0  0
   51.8589    2.8255    5.6437 C   0  0  0  0  0  0  0  0  0  0  0  0
   51.1003    2.2302    6.6531 C   0  0  0  0  0  0  0  0  0  0  0  0
   50.0666    2.4520    6.7440 H   0  0  0  0  0  0  0  0  0  0  0  0
   51.6930    1.3508    7.5532 C   0  0  0  0  0  0  0  0  0  0  0  0
   51.1196    0.8976    8.3199 H   0  0  0  0  0  0  0  0  0  0  0  0
  1  2  1  0  0  0  0
  1  5  1  0  0  0  0
  2  3  2  0  0  0  0
  2  6  1  0  0  0  0
  3  4  1  0  0  0  0
  3 20  1  0  0  0  0
  4  5  2  0  0  0  0
  4 19  1  0  0  0  0
  5  9  1  0  0  0  0
  6  7  2  0  0  0  0
  6  8  1  0  0  0  0
  9 10  1  0  0  0  0
  9 17  2  0  0  0  0
 10 11  1  0  0  0  0
 10 12  2  0  0  0  0
 12 13  1  0  0  0  0
 12 27  1  0  0  0  0
 13 14  1  0  0  0  0
 13 15  2  0  0  0  0
 15 16  1  0  0  0  0
 15 17  1  0  0  0  0
 17 18  1  0  0  0  0
 20 21  1  0  0  0  0
 21 22  1  0  0  0  0
 21 23  1  0  0  0  0
 21 24  1  0  0  0  0
 24 25  2  0  0  0  0
 24 26  1  0  0  0  0
 27 28  1  0  0  0  0
 27 29  1  0  0  0  0
 29 30  1  0  0  0  0
 29 31  1  0  0  0  0
 29 41  1  0  0  0  0
 31 32  1  0  0  0  0
 31 33  1  0  0  0  0
 31 34  1  0  0  0  0
 34 35  1  0  0  0  0
 34 36  1  0  0  0  0
 34 37  1  0  0  0  0
 37 38  1  0  0  0  0
 37 44  1  0  0  0  0
 38 39  1  0  0  0  0
 38 40  1  0  0  0  0
 38 41  1  0  0  0  0
 41 42  1  0  0  0  0
 41 43  1  0  0  0  0
 44 45  1  0  0  0  0
 44 48  2  0  0  0  0
 44 49  2  0  0  0  0
 45 46  1  0  0  0  0
 45 47  1  0  0  0  0
 45 56  1  0  0  0  0
 50 51  1  0  0  0  0
 50 52  1  0  0  0  0
 50 59  2  0  0  0  0
 52 53  1  0  0  0  0
 52 54  2  0  0  0  0
 54 55  1  0  0  0  0
 54 56  1  0  0  0  0
 56 57  2  0  0  0  0
 57 58  1  0  0  0  0
 57 59  1  0  0  0  0
 59 60  1  0  0  0  0
M  CHG  1   8  -1
M  CHG  1  26  -1
M  END
$$$$
ptp1b_wilson_42
  MOE2024           3D
ptp1b_wilson_42
 60 63  0  0  0  0  0  0  0  0999 V2000
   44.6510   14.0740    0.6210 S   0  0  0  0  0  0  0  0  0  0  0  0
   44.7900   15.4820    1.5710 C   0  0  0  0  0  0  0  0  0  0  0  0
   45.6940   15.2460    2.6400 C   0  0  0  0  0  0  0  0  0  0  0  0
   46.2290   13.9270    2.6200 C   0  0  0  0  0  0  0  0  0  0  0  0
   45.7340   13.1350    1.5470 C   0  0  0  0  0  0  0  0  0  0  0  0
   44.0570   16.6430    1.2480 C   0  0  0  0  0  0  0  0  0  0  0  0
   43.4980   16.6800    0.1500 O   0  0  0  0  0  0  0  0  0  0  0  0
   43.9810   17.5810    2.0360 O   0  5  0  0  0  0  0  0  0  0  0  0
   46.0160   11.7110    1.1830 C   0  0  0  0  0  0  0  0  0  0  0  0
   47.2610   11.0370    1.4450 C   0  0  0  0  0  0  0  0  0  0  0  0
   48.0773   11.5626    1.9181 H   0  0  0  0  0  0  0  0  0  0  0  0
   47.4050    9.6640    1.0720 C   0  0  0  0  0  0  0  0  0  0  0  0
   46.3290    8.9560    0.4400 C   0  0  0  0  0  0  0  0  0  0  0  0
   46.4561    7.9192    0.1655 H   0  0  0  0  0  0  0  0  0  0  0  0
   45.0950    9.6130    0.1730 C   0  0  0  0  0  0  0  0  0  0  0  0
   44.2837    9.0851   -0.3060 H   0  0  0  0  0  0  0  0  0  0  0  0
   44.9490   10.9800    0.5490 C   0  0  0  0  0  0  0  0  0  0  0  0
   44.0127   11.4815    0.3532 H   0  0  0  0  0  0  0  0  0  0  0  0
   47.4770   13.3320    3.9450 Br  0  0  0  0  0  0  0  0  0  0  0  0
   46.0630   16.1740    3.6490 O   0  0  0  0  0  0  0  0  0  0  0  0
   47.2490   16.9320    3.4120 C   0  0  0  0  0  0  0  0  0  0  0  0
   47.0569   17.6950    2.6577 H   0  0  0  0  0  0  0  0  0  0  0  0
   48.0471   16.2740    3.0682 H   0  0  0  0  0  0  0  0  0  0  0  0
   47.6510   17.5920    4.7270 C   0  0  0  0  0  0  0  0  0  0  0  0
   46.8770   17.5250    5.6970 O   0  0  0  0  0  0  0  0  0  0  0  0
   48.7320   18.1660    4.7830 O   0  5  0  0  0  0  0  0  0  0  0  0
   48.6210    8.9650    1.3420 N   0  0  0  0  0  0  0  0  0  0  0  0
   49.3906    9.5529    1.0555 H   0  0  0  0  0  0  0  0  0  0  0  0
   49.1550    7.7650    1.8570 C   0  0  0  0  0  0  0  0  0  0  0  0
   48.9897    6.9563    1.1451 H   0  0  0  0  0  0  0  0  0  0  0  0
   50.6800    7.8220    2.0380 C   0  0  0  0  0  0  0  0  0  0  0  0
   50.9377    8.6089    2.7469 H   0  0  0  0  0  0  0  0  0  0  0  0
   51.1574    8.0259    1.0795 H   0  0  0  0  0  0  0  0  0  0  0  0
   51.1188    6.4524    2.5813 C   0  0  0  0  0  0  0  0  0  0  0  0
   52.1864    6.5032    2.7608 H   0  0  0  0  0  0  0  0  0  0  0  0
   50.8561    5.6741    1.8753 H   0  0  0  0  0  0  0  0  0  0  0  0
   50.3984    6.2642    3.8508 N   0  0  0  0  0  0  0  0  0  0  0  0
   48.9402    6.1188    3.7043 C   0  0  0  0  0  0  0  0  0  0  0  0
   48.4817    5.9430    4.6706 H   0  0  0  0  0  0  0  0  0  0  0  0
   48.7041    5.3428    2.9867 H   0  0  0  0  0  0  0  0  0  0  0  0
   48.4240    7.4700    3.1930 C   0  0  0  0  0  0  0  0  0  0  0  0
   47.3494    7.4380    3.0131 H   0  0  0  0  0  0  0  0  0  0  0  0
   48.6494    8.2626    3.9065 H   0  0  0  0  0  0  0  0  0  0  0  0
   51.1647    5.5164    5.1197 S   0  0  0  0  0  0  0  0  0  0  0  0
   51.1614    3.7809    4.6892 C   0  0  0  0  0  0  0  0  0  0  0  0
   51.6720    3.6038    3.7555 H   0  0  0  0  0  0  0  0  0  0  0  0
   50.1573    3.4005    4.5854 H   0  0  0  0  0  0  0  0  0  0  0  0
   52.5147    5.9614    5.1678 O   0  0  0  0  0  0  0  0  0  0  0  0
   50.3822    5.6837    6.2947 O   0  0  0  0  0  0  0  0  0  0  0  0
   53.0704    1.0686    7.4502 C   0  0  0  0  0  0  0  0  0  0  0  0
   53.5325    0.4012    8.1304 H   0  0  0  0  0  0  0  0  0  0  0  0
   53.8189    1.7131    6.4721 C   0  0  0  0  0  0  0  0  0  0  0  0
   54.8633    1.5419    6.4050 H   0  0  0  0  0  0  0  0  0  0  0  0
   53.2014    2.5887    5.5820 C   0  0  0  0  0  0  0  0  0  0  0  0
   53.7860    3.0842    4.8481 H   0  0  0  0  0  0  0  0  0  0  0  0
   51.8275    2.8212    5.6612 C   0  0  0  0  0  0  0  0  0  0  0  0
   51.0794    2.1855    6.6507 C   0  0  0  0  0  0  0  0  0  0  0  0
   50.0391    2.3640    6.7443 H   0  0  0  0  0  0  0  0  0  0  0  0
   51.6992    1.3075    7.5410 C   0  0  0  0  0  0  0  0  0  0  0  0
   50.7622    0.5107    8.7615 Cl  0  0  0  0  0  0  0  0  0  0  0  0
  1  2  1  0  0  0  0
  1  5  1  0  0  0  0
  2  3  2  0  0  0  0
  2  6  1  0  0  0  0
  3  4  1  0  0  0  0
  3 20  1  0  0  0  0
  4  5  2  0  0  0  0
  4 19  1  0  0  0  0
  5  9  1  0  0  0  0
  6  7  2  0  0  0  0
  6  8  1  0  0  0  0
  9 10  1  0  0  0  0
  9 17  2  0  0  0  0
 10 11  1  0  0  0  0
 10 12  2  0  0  0  0
 12 13  1  0  0  0  0
 12 27  1  0  0  0  0
 13 14  1  0  0  0  0
 13 15  2  0  0  0  0
 15 16  1  0  0  0  0
 15 17  1  0  0  0  0
 17 18  1  0  0  0  0
 20 21  1  0  0  0  0
 21 22  1  0  0  0  0
 21 23  1  0  0  0  0
 21 24  1  0  0  0  0
 24 25  2  0  0  0  0
 24 26  1  0  0  0  0
 27 28  1  0  0  0  0
 27 29  1  0  0  0  0
 29 30  1  0  0  0  0
 29 31  1  0  0  0  0
 29 41  1  0  0  0  0
 31 32  1  0  0  0  0
 31 33  1  0  0  0  0
 31 34  1  0  0  0  0
 34 35  1  0  0  0  0
 34 36  1  0  0  0  0
 34 37  1  0  0  0  0
 37 38  1  0  0  0  0
 37 44  1  0  0  0  0
 38 39  1  0  0  0  0
 38 40  1  0  0  0  0
 38 41  1  0  0  0  0
 41 42  1  0  0  0  0
 41 43  1  0  0  0  0
 44 45  1  0  0  0  0
 44 48  2  0  0  0  0
 44 49  2  0  0  0  0
 45 46  1  0  0  0  0
 45 47  1  0  0  0  0
 45 56  1  0  0  0  0
 50 51  1  0  0  0  0
 50 52  1  0  0  0  0
 50 59  2  0  0  0  0
 52 53  1  0  0  0  0
 52 54  2  0  0  0  0
 54 55  1  0  0  0  0
 54 56  1  0  0  0  0
 56 57  2  0  0  0  0
 57 58  1  0  0  0  0
 57 59  1  0  0  0  0
 59 60  1  0  0  0  0
M  CHG  1   8  -1
M  CHG  1  26  -1
M  END
$$$$
ptp1b_wilson_43
  MOE2024           3D
ptp1b_wilson_43
 60 63  0  0  0  0  0  0  0  0999 V2000
   44.6510   14.0740    0.6210 S   0  0  0  0  0  0  0  0  0  0  0  0
   44.7900   15.4820    1.5710 C   0  0  0  0  0  0  0  0  0  0  0  0
   45.6940   15.2460    2.6400 C   0  0  0  0  0  0  0  0  0  0  0  0
   46.2290   13.9270    2.6200 C   0  0  0  0  0  0  0  0  0  0  0  0
   45.7340   13.1350    1.5470 C   0  0  0  0  0  0  0  0  0  0  0  0
   44.0570   16.6430    1.2480 C   0  0  0  0  0  0  0  0  0  0  0  0
   43.4980   16.6800    0.1500 O   0  0  0  0  0  0  0  0  0  0  0  0
   43.9810   17.5810    2.0360 O   0  5  0  0  0  0  0  0  0  0  0  0
   46.0160   11.7110    1.1830 C   0  0  0  0  0  0  0  0  0  0  0  0
   47.2610   11.0370    1.4450 C   0  0  0  0  0  0  0  0  0  0  0  0
   48.0773   11.5626    1.9181 H   0  0  0  0  0  0  0  0  0  0  0  0
   47.4050    9.6640    1.0720 C   0  0  0  0  0  0  0  0  0  0  0  0
   46.3290    8.9560    0.4400 C   0  0  0  0  0  0  0  0  0  0  0  0
   46.4561    7.9192    0.1655 H   0  0  0  0  0  0  0  0  0  0  0  0
   45.0950    9.6130    0.1730 C   0  0  0  0  0  0  0  0  0  0  0  0
   44.2837    9.0851   -0.3060 H   0  0  0  0  0  0  0  0  0  0  0  0
   44.9490   10.9800    0.5490 C   0  0  0  0  0  0  0  0  0  0  0  0
   44.0127   11.4815    0.3532 H   0  0  0  0  0  0  0  0  0  0  0  0
   47.4770   13.3320    3.9450 Br  0  0  0  0  0  0  0  0  0  0  0  0
   46.0630   16.1740    3.6490 O   0  0  0  0  0  0  0  0  0  0  0  0
   47.2490   16.9320    3.4120 C   0  0  0  0  0  0  0  0  0  0  0  0
   47.0569   17.6950    2.6577 H   0  0  0  0  0  0  0  0  0  0  0  0
   48.0471   16.2740    3.0682 H   0  0  0  0  0  0  0  0  0  0  0  0
   47.6510   17.5920    4.7270 C   0  0  0  0  0  0  0  0  0  0  0  0
   46.8770   17.5250    5.6970 O   0  0  0  0  0  0  0  0  0  0  0  0
   48.7320   18.1660    4.7830 O   0  5  0  0  0  0  0  0  0  0  0  0
   48.6210    8.9650    1.3420 N   0  0  0  0  0  0  0  0  0  0  0  0
   49.3906    9.5529    1.0555 H   0  0  0  0  0  0  0  0  0  0  0  0
   49.1550    7.7650    1.8570 C   0  0  0  0  0  0  0  0  0  0  0  0
   48.9897    6.9563    1.1451 H   0  0  0  0  0  0  0  0  0  0  0  0
   50.6800    7.8220    2.0380 C   0  0  0  0  0  0  0  0  0  0  0  0
   50.9377    8.6089    2.7469 H   0  0  0  0  0  0  0  0  0  0  0  0
   51.1574    8.0259    1.0795 H   0  0  0  0  0  0  0  0  0  0  0  0
   51.1214    6.4549    2.5814 C   0  0  0  0  0  0  0  0  0  0  0  0
   52.1894    6.5071    2.7594 H   0  0  0  0  0  0  0  0  0  0  0  0
   50.8574    5.6750    1.8776 H   0  0  0  0  0  0  0  0  0  0  0  0
   50.4039    6.2709    3.8512 N   0  0  0  0  0  0  0  0  0  0  0  0
   48.9448    6.1196    3.7064 C   0  0  0  0  0  0  0  0  0  0  0  0
   48.4876    5.9429    4.6734 H   0  0  0  0  0  0  0  0  0  0  0  0
   48.7106    5.3409    2.9911 H   0  0  0  0  0  0  0  0  0  0  0  0
   48.4240    7.4700    3.1930 C   0  0  0  0  0  0  0  0  0  0  0  0
   47.3494    7.4380    3.0131 H   0  0  0  0  0  0  0  0  0  0  0  0
   48.6494    8.2626    3.9065 H   0  0  0  0  0  0  0  0  0  0  0  0
   51.1755    5.5279    5.1191 S   0  0  0  0  0  0  0  0  0  0  0  0
   51.2347    3.8010    4.6612 C   0  0  0  0  0  0  0  0  0  0  0  0
   51.8450    3.6497    3.7842 H   0  0  0  0  0  0  0  0  0  0  0  0
   50.2561    3.4181    4.4251 H   0  0  0  0  0  0  0  0  0  0  0  0
   52.5121    6.0099    5.1913 O   0  0  0  0  0  0  0  0  0  0  0  0
   50.3760    5.6583    6.2866 O   0  0  0  0  0  0  0  0  0  0  0  0
   52.9836    1.1093    7.5565 C   0  0  0  0  0  0  0  0  0  0  0  0
   53.4259    0.4553    8.2646 H   0  0  0  0  0  0  0  0  0  0  0  0
   53.7884    1.9258    6.7684 C   0  0  0  0  0  0  0  0  0  0  0  0
   54.8429    1.8964    6.8786 H   0  0  0  0  0  0  0  0  0  0  0  0
   53.2101    2.7869    5.8398 C   0  0  0  0  0  0  0  0  0  0  0  0
   53.8370    3.4143    5.2563 H   0  0  0  0  0  0  0  0  0  0  0  0
   51.8252    2.8381    5.6826 C   0  0  0  0  0  0  0  0  0  0  0  0
   51.0185    2.0185    6.4890 C   0  0  0  0  0  0  0  0  0  0  0  0
   49.2846    2.0400    6.3670 Cl  0  0  0  0  0  0  0  0  0  0  0  0
   51.6016    1.1560    7.4194 C   0  0  0  0  0  0  0  0  0  0  0  0
   50.9827    0.5417    8.0207 H   0  0  0  0  0  0  0  0  0  0  0  0
  1  2  1  0  0  0  0
  1  5  1  0  0  0  0
  2  3  2  0  0  0  0
  2  6  1  0  0  0  0
  3  4  1  0  0  0  0
  3 20  1  0  0  0  0
  4  5  2  0  0  0  0
  4 19  1  0  0  0  0
  5  9  1  0  0  0  0
  6  7  2  0  0  0  0
  6  8  1  0  0  0  0
  9 10  1  0  0  0  0
  9 17  2  0  0  0  0
 10 11  1  0  0  0  0
 10 12  2  0  0  0  0
 12 13  1  0  0  0  0
 12 27  1  0  0  0  0
 13 14  1  0  0  0  0
 13 15  2  0  0  0  0
 15 16  1  0  0  0  0
 15 17  1  0  0  0  0
 17 18  1  0  0  0  0
 20 21  1  0  0  0  0
 21 22  1  0  0  0  0
 21 23  1  0  0  0  0
 21 24  1  0  0  0  0
 24 25  2  0  0  0  0
 24 26  1  0  0  0  0
 27 28  1  0  0  0  0
 27 29  1  0  0  0  0
 29 30  1  0  0  0  0
 29 31  1  0  0  0  0
 29 41  1  0  0  0  0
 31 32  1  0  0  0  0
 31 33  1  0  0  0  0
 31 34  1  0  0  0  0
 34 35  1  0  0  0  0
 34 36  1  0  0  0  0
 34 37  1  0  0  0  0
 37 38  1  0  0  0  0
 37 44  1  0  0  0  0
 38 39  1  0  0  0  0
 38 40  1  0  0  0  0
 38 41  1  0  0  0  0
 41 42  1  0  0  0  0
 41 43  1  0  0  0  0
 44 45  1  0  0  0  0
 44 48  2  0  0  0  0
 44 49  2  0  0  0  0
 45 46  1  0  0  0  0
 45 47  1  0  0  0  0
 45 56  1  0  0  0  0
 50 51  1  0  0  0  0
 50 52  1  0  0  0  0
 50 59  2  0  0  0  0
 52 53  1  0  0  0  0
 52 54  2  0  0  0  0
 54 55  1  0  0  0  0
 54 56  1  0  0  0  0
 56 57  2  0  0  0  0
 57 58  1  0  0  0  0
 57 59  1  0  0  0  0
 59 60  1  0  0  0  0
M  CHG  1   8  -1
M  CHG  1  26  -1
M  END
$$$$
ptp1b_wilson_44
  MOE2024           3D
ptp1b_wilson_44
 63 66  0  0  0  0  0  0  0  0999 V2000
   44.6510   14.0740    0.6210 S   0  0  0  0  0  0  0  0  0  0  0  0
   44.7900   15.4820    1.5710 C   0  0  0  0  0  0  0  0  0  0  0  0
   45.6940   15.2460    2.6400 C   0  0  0  0  0  0  0  0  0  0  0  0
   46.2290   13.9270    2.6200 C   0  0  0  0  0  0  0  0  0  0  0  0
   45.7340   13.1350    1.5470 C   0  0  0  0  0  0  0  0  0  0  0  0
   44.0570   16.6430    1.2480 C   0  0  0  0  0  0  0  0  0  0  0  0
   43.4980   16.6800    0.1500 O   0  0  0  0  0  0  0  0  0  0  0  0
   43.9810   17.5810    2.0360 O   0  5  0  0  0  0  0  0  0  0  0  0
   46.0160   11.7110    1.1830 C   0  0  0  0  0  0  0  0  0  0  0  0
   47.2610   11.0370    1.4450 C   0  0  0  0  0  0  0  0  0  0  0  0
   48.0773   11.5626    1.9181 H   0  0  0  0  0  0  0  0  0  0  0  0
   47.4050    9.6640    1.0720 C   0  0  0  0  0  0  0  0  0  0  0  0
   46.3290    8.9560    0.4400 C   0  0  0  0  0  0  0  0  0  0  0  0
   46.4561    7.9192    0.1655 H   0  0  0  0  0  0  0  0  0  0  0  0
   45.0950    9.6130    0.1730 C   0  0  0  0  0  0  0  0  0  0  0  0
   44.2837    9.0851   -0.3060 H   0  0  0  0  0  0  0  0  0  0  0  0
   44.9490   10.9800    0.5490 C   0  0  0  0  0  0  0  0  0  0  0  0
   44.0127   11.4815    0.3532 H   0  0  0  0  0  0  0  0  0  0  0  0
   47.4770   13.3320    3.9450 Br  0  0  0  0  0  0  0  0  0  0  0  0
   46.0630   16.1740    3.6490 O   0  0  0  0  0  0  0  0  0  0  0  0
   47.2490   16.9320    3.4120 C   0  0  0  0  0  0  0  0  0  0  0  0
   47.0569   17.6950    2.6577 H   0  0  0  0  0  0  0  0  0  0  0  0
   48.0471   16.2740    3.0682 H   0  0  0  0  0  0  0  0  0  0  0  0
   47.6510   17.5920    4.7270 C   0  0  0  0  0  0  0  0  0  0  0  0
   46.8770   17.5250    5.6970 O   0  0  0  0  0  0  0  0  0  0  0  0
   48.7320   18.1660    4.7830 O   0  5  0  0  0  0  0  0  0  0  0  0
   48.6210    8.9650    1.3420 N   0  0  0  0  0  0  0  0  0  0  0  0
   49.3906    9.5529    1.0555 H   0  0  0  0  0  0  0  0  0  0  0  0
   49.1550    7.7650    1.8570 C   0  0  0  0  0  0  0  0  0  0  0  0
   48.9897    6.9563    1.1451 H   0  0  0  0  0  0  0  0  0  0  0  0
   50.6800    7.8220    2.0380 C   0  0  0  0  0  0  0  0  0  0  0  0
   50.9377    8.6089    2.7469 H   0  0  0  0  0  0  0  0  0  0  0  0
   51.1574    8.0259    1.0795 H   0  0  0  0  0  0  0  0  0  0  0  0
   51.1221    6.4550    2.5823 C   0  0  0  0  0  0  0  0  0  0  0  0
   52.1903    6.5067    2.7591 H   0  0  0  0  0  0  0  0  0  0  0  0
   50.8564    5.6742    1.8802 H   0  0  0  0  0  0  0  0  0  0  0  0
   50.4055    6.2760    3.8528 N   0  0  0  0  0  0  0  0  0  0  0  0
   48.9461    6.1225    3.7087 C   0  0  0  0  0  0  0  0  0  0  0  0
   48.4894    5.9473    4.6763 H   0  0  0  0  0  0  0  0  0  0  0  0
   48.7117    5.3421    2.9955 H   0  0  0  0  0  0  0  0  0  0  0  0
   48.4240    7.4700    3.1930 C   0  0  0  0  0  0  0  0  0  0  0  0
   47.3494    7.4380    3.0131 H   0  0  0  0  0  0  0  0  0  0  0  0
   48.6494    8.2626    3.9065 H   0  0  0  0  0  0  0  0  0  0  0  0
   51.1711    5.5307    5.1215 S   0  0  0  0  0  0  0  0  0  0  0  0
   51.1807    3.7950    4.6815 C   0  0  0  0  0  0  0  0  0  0  0  0
   51.9175    3.5916    3.9193 H   0  0  0  0  0  0  0  0  0  0  0  0
   50.2358    3.4920    4.2694 H   0  0  0  0  0  0  0  0  0  0  0  0
   52.5199    5.9774    5.1848 O   0  0  0  0  0  0  0  0  0  0  0  0
   50.3823    5.6935    6.2915 O   0  0  0  0  0  0  0  0  0  0  0  0
   52.3232    1.0399    7.8077 C   0  0  0  0  0  0  0  0  0  0  0  0
   52.6322    0.3738    8.5730 H   0  0  0  0  0  0  0  0  0  0  0  0
   53.2404    1.9065    7.2338 C   0  0  0  0  0  0  0  0  0  0  0  0
   54.2490    1.9062    7.5614 H   0  0  0  0  0  0  0  0  0  0  0  0
   52.8349    2.7780    6.2328 C   0  0  0  0  0  0  0  0  0  0  0  0
   53.5476    3.4422    5.8100 H   0  0  0  0  0  0  0  0  0  0  0  0
   51.5117    2.7944    5.7896 C   0  0  0  0  0  0  0  0  0  0  0  0
   50.5657    1.9224    6.3759 C   0  0  0  0  0  0  0  0  0  0  0  0
   49.0837    1.8891    5.9403 C   0  0  0  0  0  0  0  0  0  0  0  0
   48.3442    1.0923    6.7334 F   0  0  0  0  0  0  0  0  0  0  0  0
   49.0077    1.4238    4.6792 F   0  0  0  0  0  0  0  0  0  0  0  0
   48.5554    3.1235    5.9697 F   0  0  0  0  0  0  0  0  0  0  0  0
   51.0001    1.0472    7.3839 C   0  0  0  0  0  0  0  0  0  0  0  0
   50.3226    0.3726    7.8443 H   0  0  0  0  0  0  0  0  0  0  0  0
  1  2  1  0  0  0  0
  1  5  1  0  0  0  0
  2  3  2  0  0  0  0
  2  6  1  0  0  0  0
  3  4  1  0  0  0  0
  3 20  1  0  0  0  0
  4  5  2  0  0  0  0
  4 19  1  0  0  0  0
  5  9  1  0  0  0  0
  6  7  2  0  0  0  0
  6  8  1  0  0  0  0
  9 10  1  0  0  0  0
  9 17  2  0  0  0  0
 10 11  1  0  0  0  0
 10 12  2  0  0  0  0
 12 13  1  0  0  0  0
 12 27  1  0  0  0  0
 13 14  1  0  0  0  0
 13 15  2  0  0  0  0
 15 16  1  0  0  0  0
 15 17  1  0  0  0  0
 17 18  1  0  0  0  0
 20 21  1  0  0  0  0
 21 22  1  0  0  0  0
 21 23  1  0  0  0  0
 21 24  1  0  0  0  0
 24 25  2  0  0  0  0
 24 26  1  0  0  0  0
 27 28  1  0  0  0  0
 27 29  1  0  0  0  0
 29 30  1  0  0  0  0
 29 31  1  0  0  0  0
 29 41  1  0  0  0  0
 31 32  1  0  0  0  0
 31 33  1  0  0  0  0
 31 34  1  0  0  0  0
 34 35  1  0  0  0  0
 34 36  1  0  0  0  0
 34 37  1  0  0  0  0
 37 38  1  0  0  0  0
 37 44  1  0  0  0  0
 38 39  1  0  0  0  0
 38 40  1  0  0  0  0
 38 41  1  0  0  0  0
 41 42  1  0  0  0  0
 41 43  1  0  0  0  0
 44 45  1  0  0  0  0
 44 48  2  0  0  0  0
 44 49  2  0  0  0  0
 45 46  1  0  0  0  0
 45 47  1  0  0  0  0
 45 56  1  0  0  0  0
 50 51  1  0  0  0  0
 50 52  1  0  0  0  0
 50 62  2  0  0  0  0
 52 53  1  0  0  0  0
 52 54  2  0  0  0  0
 54 55  1  0  0  0  0
 54 56  1  0  0  0  0
 56 57  2  0  0  0  0
 57 58  1  0  0  0  0
 57 62  1  0  0  0  0
 58 59  1  0  0  0  0
 58 60  1  0  0  0  0
 58 61  1  0  0  0  0
 62 63  1  0  0  0  0
M  CHG  1   8  -1
M  CHG  1  26  -1
M  END
$$$$
ptp1b_wilson_45
  MOE2024           3D
ptp1b_wilson_45
 63 66  0  0  0  0  0  0  0  0999 V2000
   44.6510   14.0740    0.6210 S   0  0  0  0  0  0  0  0  0  0  0  0
   44.7900   15.4820    1.5710 C   0  0  0  0  0  0  0  0  0  0  0  0
   45.6940   15.2460    2.6400 C   0  0  0  0  0  0  0  0  0  0  0  0
   46.2290   13.9270    2.6200 C   0  0  0  0  0  0  0  0  0  0  0  0
   45.7340   13.1350    1.5470 C   0  0  0  0  0  0  0  0  0  0  0  0
   44.0570   16.6430    1.2480 C   0  0  0  0  0  0  0  0  0  0  0  0
   43.4980   16.6800    0.1500 O   0  0  0  0  0  0  0  0  0  0  0  0
   43.9810   17.5810    2.0360 O   0  5  0  0  0  0  0  0  0  0  0  0
   46.0160   11.7110    1.1830 C   0  0  0  0  0  0  0  0  0  0  0  0
   47.2610   11.0370    1.4450 C   0  0  0  0  0  0  0  0  0  0  0  0
   48.0773   11.5626    1.9181 H   0  0  0  0  0  0  0  0  0  0  0  0
   47.4050    9.6640    1.0720 C   0  0  0  0  0  0  0  0  0  0  0  0
   46.3290    8.9560    0.4400 C   0  0  0  0  0  0  0  0  0  0  0  0
   46.4561    7.9192    0.1655 H   0  0  0  0  0  0  0  0  0  0  0  0
   45.0950    9.6130    0.1730 C   0  0  0  0  0  0  0  0  0  0  0  0
   44.2837    9.0851   -0.3060 H   0  0  0  0  0  0  0  0  0  0  0  0
   44.9490   10.9800    0.5490 C   0  0  0  0  0  0  0  0  0  0  0  0
   44.0127   11.4815    0.3532 H   0  0  0  0  0  0  0  0  0  0  0  0
   47.4770   13.3320    3.9450 Br  0  0  0  0  0  0  0  0  0  0  0  0
   46.0630   16.1740    3.6490 O   0  0  0  0  0  0  0  0  0  0  0  0
   47.2490   16.9320    3.4120 C   0  0  0  0  0  0  0  0  0  0  0  0
   47.0569   17.6950    2.6577 H   0  0  0  0  0  0  0  0  0  0  0  0
   48.0471   16.2740    3.0682 H   0  0  0  0  0  0  0  0  0  0  0  0
   47.6510   17.5920    4.7270 C   0  0  0  0  0  0  0  0  0  0  0  0
   46.8770   17.5250    5.6970 O   0  0  0  0  0  0  0  0  0  0  0  0
   48.7320   18.1660    4.7830 O   0  5  0  0  0  0  0  0  0  0  0  0
   48.6210    8.9650    1.3420 N   0  0  0  0  0  0  0  0  0  0  0  0
   49.3906    9.5529    1.0555 H   0  0  0  0  0  0  0  0  0  0  0  0
   49.1550    7.7650    1.8570 C   0  0  0  0  0  0  0  0  0  0  0  0
   48.9897    6.9563    1.1451 H   0  0  0  0  0  0  0  0  0  0  0  0
   50.6800    7.8220    2.0380 C   0  0  0  0  0  0  0  0  0  0  0  0
   50.9377    8.6089    2.7469 H   0  0  0  0  0  0  0  0  0  0  0  0
   51.1574    8.0259    1.0795 H   0  0  0  0  0  0  0  0  0  0  0  0
   51.1206    6.4540    2.5848 C   0  0  0  0  0  0  0  0  0  0  0  0
   52.1876    6.5075    2.7673 H   0  0  0  0  0  0  0  0  0  0  0  0
   50.8618    5.6738    1.8796 H   0  0  0  0  0  0  0  0  0  0  0  0
   50.3985    6.2645    3.8533 N   0  0  0  0  0  0  0  0  0  0  0  0
   48.9408    6.1189    3.7038 C   0  0  0  0  0  0  0  0  0  0  0  0
   48.4811    5.9423    4.6693 H   0  0  0  0  0  0  0  0  0  0  0  0
   48.7066    5.3427    2.9858 H   0  0  0  0  0  0  0  0  0  0  0  0
   48.4240    7.4700    3.1930 C   0  0  0  0  0  0  0  0  0  0  0  0
   47.3494    7.4380    3.0131 H   0  0  0  0  0  0  0  0  0  0  0  0
   48.6494    8.2626    3.9065 H   0  0  0  0  0  0  0  0  0  0  0  0
   51.1605    5.4983    5.1149 S   0  0  0  0  0  0  0  0  0  0  0  0
   51.1608    3.7699    4.6520 C   0  0  0  0  0  0  0  0  0  0  0  0
   51.6937    3.6154    3.7269 H   0  0  0  0  0  0  0  0  0  0  0  0
   50.1617    3.3986    4.4993 H   0  0  0  0  0  0  0  0  0  0  0  0
   52.5091    5.9470    5.1752 O   0  0  0  0  0  0  0  0  0  0  0  0
   50.3706    5.6526    6.2876 O   0  0  0  0  0  0  0  0  0  0  0  0
   53.1192    0.9873    7.3065 C   0  0  0  0  0  0  0  0  0  0  0  0
   53.6130    0.3049    7.9499 H   0  0  0  0  0  0  0  0  0  0  0  0
   53.8478    1.7205    6.3797 C   0  0  0  0  0  0  0  0  0  0  0  0
   54.8993    1.6021    6.3173 H   0  0  0  0  0  0  0  0  0  0  0  0
   53.1969    2.6142    5.5379 C   0  0  0  0  0  0  0  0  0  0  0  0
   53.7661    3.1772    4.8422 H   0  0  0  0  0  0  0  0  0  0  0  0
   51.8130    2.7801    5.6093 C   0  0  0  0  0  0  0  0  0  0  0  0
   51.0791    2.0520    6.5570 C   0  0  0  0  0  0  0  0  0  0  0  0
   49.5764    2.2123    6.7100 C   0  0  0  0  0  0  0  0  0  0  0  0
   49.2367    1.6437    7.5758 H   0  0  0  0  0  0  0  0  0  0  0  0
   49.0923    1.8344    5.8099 H   0  0  0  0  0  0  0  0  0  0  0  0
   49.3525    3.2678    6.8660 H   0  0  0  0  0  0  0  0  0  0  0  0
   51.7421    1.1550    7.3950 C   0  0  0  0  0  0  0  0  0  0  0  0
   51.1984    0.5957    8.1123 H   0  0  0  0  0  0  0  0  0  0  0  0
  1  2  1  0  0  0  0
  1  5  1  0  0  0  0
  2  3  2  0  0  0  0
  2  6  1  0  0  0  0
  3  4  1  0  0  0  0
  3 20  1  0  0  0  0
  4  5  2  0  0  0  0
  4 19  1  0  0  0  0
  5  9  1  0  0  0  0
  6  7  2  0  0  0  0
  6  8  1  0  0  0  0
  9 10  1  0  0  0  0
  9 17  2  0  0  0  0
 10 11  1  0  0  0  0
 10 12  2  0  0  0  0
 12 13  1  0  0  0  0
 12 27  1  0  0  0  0
 13 14  1  0  0  0  0
 13 15  2  0  0  0  0
 15 16  1  0  0  0  0
 15 17  1  0  0  0  0
 17 18  1  0  0  0  0
 20 21  1  0  0  0  0
 21 22  1  0  0  0  0
 21 23  1  0  0  0  0
 21 24  1  0  0  0  0
 24 25  2  0  0  0  0
 24 26  1  0  0  0  0
 27 28  1  0  0  0  0
 27 29  1  0  0  0  0
 29 30  1  0  0  0  0
 29 31  1  0  0  0  0
 29 41  1  0  0  0  0
 31 32  1  0  0  0  0
 31 33  1  0  0  0  0
 31 34  1  0  0  0  0
 34 35  1  0  0  0  0
 34 36  1  0  0  0  0
 34 37  1  0  0  0  0
 37 38  1  0  0  0  0
 37 44  1  0  0  0  0
 38 39  1  0  0  0  0
 38 40  1  0  0  0  0
 38 41  1  0  0  0  0
 41 42  1  0  0  0  0
 41 43  1  0  0  0  0
 44 45  1  0  0  0  0
 44 48  2  0  0  0  0
 44 49  2  0  0  0  0
 45 46  1  0  0  0  0
 45 47  1  0  0  0  0
 45 56  1  0  0  0  0
 50 51  1  0  0  0  0
 50 52  1  0  0  0  0
 50 62  2  0  0  0  0
 52 53  1  0  0  0  0
 52 54  2  0  0  0  0
 54 55  1  0  0  0  0
 54 56  1  0  0  0  0
 56 57  2  0  0  0  0
 57 58  1  0  0  0  0
 57 62  1  0  0  0  0
 58 59  1  0  0  0  0
 58 60  1  0  0  0  0
 58 61  1  0  0  0  0
 62 63  1  0  0  0  0
M  CHG  1   8  -1
M  CHG  1  26  -1
M  END
$$$$
ptp1b_wilson_46
  MOE2024           3D
ptp1b_wilson_46
 66 69  0  0  0  0  0  0  0  0999 V2000
   44.6510   14.0740    0.6210 S   0  0  0  0  0  0  0  0  0  0  0  0
   44.7900   15.4820    1.5710 C   0  0  0  0  0  0  0  0  0  0  0  0
   45.6940   15.2460    2.6400 C   0  0  0  0  0  0  0  0  0  0  0  0
   46.2290   13.9270    2.6200 C   0  0  0  0  0  0  0  0  0  0  0  0
   45.7340   13.1350    1.5470 C   0  0  0  0  0  0  0  0  0  0  0  0
   44.0570   16.6430    1.2480 C   0  0  0  0  0  0  0  0  0  0  0  0
   43.4980   16.6800    0.1500 O   0  0  0  0  0  0  0  0  0  0  0  0
   43.9810   17.5810    2.0360 O   0  5  0  0  0  0  0  0  0  0  0  0
   46.0160   11.7110    1.1830 C   0  0  0  0  0  0  0  0  0  0  0  0
   47.2610   11.0370    1.4450 C   0  0  0  0  0  0  0  0  0  0  0  0
   48.0773   11.5626    1.9181 H   0  0  0  0  0  0  0  0  0  0  0  0
   47.4050    9.6640    1.0720 C   0  0  0  0  0  0  0  0  0  0  0  0
   46.3290    8.9560    0.4400 C   0  0  0  0  0  0  0  0  0  0  0  0
   46.4561    7.9192    0.1655 H   0  0  0  0  0  0  0  0  0  0  0  0
   45.0950    9.6130    0.1730 C   0  0  0  0  0  0  0  0  0  0  0  0
   44.2837    9.0851   -0.3060 H   0  0  0  0  0  0  0  0  0  0  0  0
   44.9490   10.9800    0.5490 C   0  0  0  0  0  0  0  0  0  0  0  0
   44.0127   11.4815    0.3532 H   0  0  0  0  0  0  0  0  0  0  0  0
   47.4770   13.3320    3.9450 Br  0  0  0  0  0  0  0  0  0  0  0  0
   46.0630   16.1740    3.6490 O   0  0  0  0  0  0  0  0  0  0  0  0
   47.2490   16.9320    3.4120 C   0  0  0  0  0  0  0  0  0  0  0  0
   47.0569   17.6950    2.6577 H   0  0  0  0  0  0  0  0  0  0  0  0
   48.0471   16.2740    3.0682 H   0  0  0  0  0  0  0  0  0  0  0  0
   47.6510   17.5920    4.7270 C   0  0  0  0  0  0  0  0  0  0  0  0
   46.8770   17.5250    5.6970 O   0  0  0  0  0  0  0  0  0  0  0  0
   48.7320   18.1660    4.7830 O   0  5  0  0  0  0  0  0  0  0  0  0
   48.6210    8.9650    1.3420 N   0  0  0  0  0  0  0  0  0  0  0  0
   49.3906    9.5529    1.0555 H   0  0  0  0  0  0  0  0  0  0  0  0
   49.1550    7.7650    1.8570 C   0  0  0  0  0  0  0  0  0  0  0  0
   48.9897    6.9563    1.1451 H   0  0  0  0  0  0  0  0  0  0  0  0
   50.6800    7.8220    2.0380 C   0  0  0  0  0  0  0  0  0  0  0  0
   50.9377    8.6089    2.7469 H   0  0  0  0  0  0  0  0  0  0  0  0
   51.1574    8.0259    1.0795 H   0  0  0  0  0  0  0  0  0  0  0  0
   51.1213    6.4546    2.5824 C   0  0  0  0  0  0  0  0  0  0  0  0
   52.1889    6.5067    2.7617 H   0  0  0  0  0  0  0  0  0  0  0  0
   50.8585    5.6742    1.8786 H   0  0  0  0  0  0  0  0  0  0  0  0
   50.4024    6.2697    3.8517 N   0  0  0  0  0  0  0  0  0  0  0  0
   48.9443    6.1194    3.7058 C   0  0  0  0  0  0  0  0  0  0  0  0
   48.4869    5.9432    4.6724 H   0  0  0  0  0  0  0  0  0  0  0  0
   48.7106    5.3415    2.9895 H   0  0  0  0  0  0  0  0  0  0  0  0
   48.4240    7.4700    3.1930 C   0  0  0  0  0  0  0  0  0  0  0  0
   47.3494    7.4380    3.0131 H   0  0  0  0  0  0  0  0  0  0  0  0
   48.6494    8.2626    3.9065 H   0  0  0  0  0  0  0  0  0  0  0  0
   51.1755    5.5299    5.1224 S   0  0  0  0  0  0  0  0  0  0  0  0
   51.2255    3.7964    4.6602 C   0  0  0  0  0  0  0  0  0  0  0  0
   51.7494    3.6591    3.7303 H   0  0  0  0  0  0  0  0  0  0  0  0
   50.2341    3.4125    4.4928 H   0  0  0  0  0  0  0  0  0  0  0  0
   52.5069    6.0248    5.1911 O   0  0  0  0  0  0  0  0  0  0  0  0
   50.3728    5.6717    6.2875 O   0  0  0  0  0  0  0  0  0  0  0  0
   53.0502    0.9509    7.3687 C   0  0  0  0  0  0  0  0  0  0  0  0
   53.4967    0.2566    8.0330 H   0  0  0  0  0  0  0  0  0  0  0  0
   53.8208    1.5862    6.4072 C   0  0  0  0  0  0  0  0  0  0  0  0
   54.8559    1.3673    6.3495 H   0  0  0  0  0  0  0  0  0  0  0  0
   53.2467    2.5030    5.5289 C   0  0  0  0  0  0  0  0  0  0  0  0
   54.1590    3.1561    4.5021 C   0  0  0  0  0  0  0  0  0  0  0  0
   53.8044    2.9078    3.5029 H   0  0  0  0  0  0  0  0  0  0  0  0
   55.1740    2.7781    4.6236 H   0  0  0  0  0  0  0  0  0  0  0  0
   54.1642    4.2319    4.6668 H   0  0  0  0  0  0  0  0  0  0  0  0
   51.8721    2.7891    5.6184 C   0  0  0  0  0  0  0  0  0  0  0  0
   51.0958    2.1408    6.5962 C   0  0  0  0  0  0  0  0  0  0  0  0
   49.6045    2.3895    6.7608 C   0  0  0  0  0  0  0  0  0  0  0  0
   49.2272    1.8024    7.5981 H   0  0  0  0  0  0  0  0  0  0  0  0
   49.0927    2.0828    5.8496 H   0  0  0  0  0  0  0  0  0  0  0  0
   49.4421    3.4447    6.9723 H   0  0  0  0  0  0  0  0  0  0  0  0
   51.6948    1.2274    7.4615 C   0  0  0  0  0  0  0  0  0  0  0  0
   51.1182    0.7363    8.2023 H   0  0  0  0  0  0  0  0  0  0  0  0
  1  2  1  0  0  0  0
  1  5  1  0  0  0  0
  2  3  2  0  0  0  0
  2  6  1  0  0  0  0
  3  4  1  0  0  0  0
  3 20  1  0  0  0  0
  4  5  2  0  0  0  0
  4 19  1  0  0  0  0
  5  9  1  0  0  0  0
  6  7  2  0  0  0  0
  6  8  1  0  0  0  0
  9 10  1  0  0  0  0
  9 17  2  0  0  0  0
 10 11  1  0  0  0  0
 10 12  2  0  0  0  0
 12 13  1  0  0  0  0
 12 27  1  0  0  0  0
 13 14  1  0  0  0  0
 13 15  2  0  0  0  0
 15 16  1  0  0  0  0
 15 17  1  0  0  0  0
 17 18  1  0  0  0  0
 20 21  1  0  0  0  0
 21 22  1  0  0  0  0
 21 23  1  0  0  0  0
 21 24  1  0  0  0  0
 24 25  2  0  0  0  0
 24 26  1  0  0  0  0
 27 28  1  0  0  0  0
 27 29  1  0  0  0  0
 29 30  1  0  0  0  0
 29 31  1  0  0  0  0
 29 41  1  0  0  0  0
 31 32  1  0  0  0  0
 31 33  1  0  0  0  0
 31 34  1  0  0  0  0
 34 35  1  0  0  0  0
 34 36  1  0  0  0  0
 34 37  1  0  0  0  0
 37 38  1  0  0  0  0
 37 44  1  0  0  0  0
 38 39  1  0  0  0  0
 38 40  1  0  0  0  0
 38 41  1  0  0  0  0
 41 42  1  0  0  0  0
 41 43  1  0  0  0  0
 44 45  1  0  0  0  0
 44 48  2  0  0  0  0
 44 49  2  0  0  0  0
 45 46  1  0  0  0  0
 45 47  1  0  0  0  0
 45 59  1  0  0  0  0
 50 51  1  0  0  0  0
 50 52  1  0  0  0  0
 50 65  2  0  0  0  0
 52 53  1  0  0  0  0
 52 54  2  0  0  0  0
 54 55  1  0  0  0  0
 54 59  1  0  0  0  0
 55 56  1  0  0  0  0
 55 57  1  0  0  0  0
 55 58  1  0  0  0  0
 59 60  2  0  0  0  0
 60 61  1  0  0  0  0
 60 65  1  0  0  0  0
 61 62  1  0  0  0  0
 61 63  1  0  0  0  0
 61 64  1  0  0  0  0
 65 66  1  0  0  0  0
M  CHG  1   8  -1
M  CHG  1  26  -1
M  END
$$$$
ptp1b_wilson_47
  MOE2024           3D
ptp1b_wilson_47
 62 65  0  0  0  0  0  0  0  0999 V2000
   44.6510   14.0740    0.6210 S   0  0  0  0  0  0  0  0  0  0  0  0
   44.7900   15.4820    1.5710 C   0  0  0  0  0  0  0  0  0  0  0  0
   45.6940   15.2460    2.6400 C   0  0  0  0  0  0  0  0  0  0  0  0
   46.2290   13.9270    2.6200 C   0  0  0  0  0  0  0  0  0  0  0  0
   45.7340   13.1350    1.5470 C   0  0  0  0  0  0  0  0  0  0  0  0
   44.0570   16.6430    1.2480 C   0  0  0  0  0  0  0  0  0  0  0  0
   43.4980   16.6800    0.1500 O   0  0  0  0  0  0  0  0  0  0  0  0
   43.9810   17.5810    2.0360 O   0  5  0  0  0  0  0  0  0  0  0  0
   46.0160   11.7110    1.1830 C   0  0  0  0  0  0  0  0  0  0  0  0
   47.2610   11.0370    1.4450 C   0  0  0  0  0  0  0  0  0  0  0  0
   48.0773   11.5626    1.9181 H   0  0  0  0  0  0  0  0  0  0  0  0
   47.4050    9.6640    1.0720 C   0  0  0  0  0  0  0  0  0  0  0  0
   46.3290    8.9560    0.4400 C   0  0  0  0  0  0  0  0  0  0  0  0
   46.4561    7.9192    0.1655 H   0  0  0  0  0  0  0  0  0  0  0  0
   45.0950    9.6130    0.1730 C   0  0  0  0  0  0  0  0  0  0  0  0
   44.2837    9.0851   -0.3060 H   0  0  0  0  0  0  0  0  0  0  0  0
   44.9490   10.9800    0.5490 C   0  0  0  0  0  0  0  0  0  0  0  0
   44.0127   11.4815    0.3532 H   0  0  0  0  0  0  0  0  0  0  0  0
   47.4770   13.3320    3.9450 Br  0  0  0  0  0  0  0  0  0  0  0  0
   46.0630   16.1740    3.6490 O   0  0  0  0  0  0  0  0  0  0  0  0
   47.2490   16.9320    3.4120 C   0  0  0  0  0  0  0  0  0  0  0  0
   47.0569   17.6950    2.6577 H   0  0  0  0  0  0  0  0  0  0  0  0
   48.0471   16.2740    3.0682 H   0  0  0  0  0  0  0  0  0  0  0  0
   47.6510   17.5920    4.7270 C   0  0  0  0  0  0  0  0  0  0  0  0
   46.8770   17.5250    5.6970 O   0  0  0  0  0  0  0  0  0  0  0  0
   48.7320   18.1660    4.7830 O   0  5  0  0  0  0  0  0  0  0  0  0
   48.6210    8.9650    1.3420 N   0  0  0  0  0  0  0  0  0  0  0  0
   49.3906    9.5529    1.0555 H   0  0  0  0  0  0  0  0  0  0  0  0
   49.1550    7.7650    1.8570 C   0  0  0  0  0  0  0  0  0  0  0  0
   48.9897    6.9563    1.1451 H   0  0  0  0  0  0  0  0  0  0  0  0
   50.6800    7.8220    2.0380 C   0  0  0  0  0  0  0  0  0  0  0  0
   50.9377    8.6089    2.7469 H   0  0  0  0  0  0  0  0  0  0  0  0
   51.1574    8.0259    1.0795 H   0  0  0  0  0  0  0  0  0  0  0  0
   51.1194    6.4530    2.5812 C   0  0  0  0  0  0  0  0  0  0  0  0
   52.1874    6.5046    2.7590 H   0  0  0  0  0  0  0  0  0  0  0  0
   50.8568    5.6745    1.8752 H   0  0  0  0  0  0  0  0  0  0  0  0
   50.4025    6.2611    3.8526 N   0  0  0  0  0  0  0  0  0  0  0  0
   48.9427    6.1185    3.7052 C   0  0  0  0  0  0  0  0  0  0  0  0
   48.4847    5.9425    4.6717 H   0  0  0  0  0  0  0  0  0  0  0  0
   48.7060    5.3411    2.9892 H   0  0  0  0  0  0  0  0  0  0  0  0
   48.4240    7.4700    3.1930 C   0  0  0  0  0  0  0  0  0  0  0  0
   47.3494    7.4380    3.0131 H   0  0  0  0  0  0  0  0  0  0  0  0
   48.6494    8.2626    3.9065 H   0  0  0  0  0  0  0  0  0  0  0  0
   51.1689    5.4709    5.0965 S   0  0  0  0  0  0  0  0  0  0  0  0
   51.1579    3.7503    4.6115 C   0  0  0  0  0  0  0  0  0  0  0  0
   51.6405    3.6084    3.6578 H   0  0  0  0  0  0  0  0  0  0  0  0
   50.1526    3.3683    4.5216 H   0  0  0  0  0  0  0  0  0  0  0  0
   52.5190    5.9127    5.1559 O   0  0  0  0  0  0  0  0  0  0  0  0
   50.3882    5.6080    6.2807 O   0  0  0  0  0  0  0  0  0  0  0  0
   53.0637    0.8300    7.1641 C   0  0  0  0  0  0  0  0  0  0  0  0
   53.5261    0.0974    7.7749 H   0  0  0  0  0  0  0  0  0  0  0  0
   53.6873    1.2516    5.9925 C   0  0  0  0  0  0  0  0  0  0  0  0
   54.6259    0.8436    5.7165 H   0  0  0  0  0  0  0  0  0  0  0  0
   53.0770    2.2063    5.1812 C   0  0  0  0  0  0  0  0  0  0  0  0
   53.5635    2.5126    4.2906 H   0  0  0  0  0  0  0  0  0  0  0  0
   51.8419    2.7505    5.5312 C   0  0  0  0  0  0  0  0  0  0  0  0
   51.2427    2.3418    6.7297 C   0  0  0  0  0  0  0  0  0  0  0  0
   50.0438    2.9022    7.1528 N   0  0  0  0  0  0  0  0  0  0  0  0
   49.8222    2.6814    8.1334 H   0  0  0  0  0  0  0  0  0  0  0  0
   49.9971    3.9314    6.9939 H   0  0  0  0  0  0  0  0  0  0  0  0
   51.8394    1.3718    7.5348 C   0  0  0  0  0  0  0  0  0  0  0  0
   51.3635    1.0567    8.4258 H   0  0  0  0  0  0  0  0  0  0  0  0
  1  2  1  0  0  0  0
  1  5  1  0  0  0  0
  2  3  2  0  0  0  0
  2  6  1  0  0  0  0
  3  4  1  0  0  0  0
  3 20  1  0  0  0  0
  4  5  2  0  0  0  0
  4 19  1  0  0  0  0
  5  9  1  0  0  0  0
  6  7  2  0  0  0  0
  6  8  1  0  0  0  0
  9 10  1  0  0  0  0
  9 17  2  0  0  0  0
 10 11  1  0  0  0  0
 10 12  2  0  0  0  0
 12 13  1  0  0  0  0
 12 27  1  0  0  0  0
 13 14  1  0  0  0  0
 13 15  2  0  0  0  0
 15 16  1  0  0  0  0
 15 17  1  0  0  0  0
 17 18  1  0  0  0  0
 20 21  1  0  0  0  0
 21 22  1  0  0  0  0
 21 23  1  0  0  0  0
 21 24  1  0  0  0  0
 24 25  2  0  0  0  0
 24 26  1  0  0  0  0
 27 28  1  0  0  0  0
 27 29  1  0  0  0  0
 29 30  1  0  0  0  0
 29 31  1  0  0  0  0
 29 41  1  0  0  0  0
 31 32  1  0  0  0  0
 31 33  1  0  0  0  0
 31 34  1  0  0  0  0
 34 35  1  0  0  0  0
 34 36  1  0  0  0  0
 34 37  1  0  0  0  0
 37 38  1  0  0  0  0
 37 44  1  0  0  0  0
 38 39  1  0  0  0  0
 38 40  1  0  0  0  0
 38 41  1  0  0  0  0
 41 42  1  0  0  0  0
 41 43  1  0  0  0  0
 44 45  1  0  0  0  0
 44 48  2  0  0  0  0
 44 49  2  0  0  0  0
 45 46  1  0  0  0  0
 45 47  1  0  0  0  0
 45 56  1  0  0  0  0
 50 51  1  0  0  0  0
 50 52  1  0  0  0  0
 50 61  2  0  0  0  0
 52 53  1  0  0  0  0
 52 54  2  0  0  0  0
 54 55  1  0  0  0  0
 54 56  1  0  0  0  0
 56 57  2  0  0  0  0
 57 58  1  0  0  0  0
 57 61  1  0  0  0  0
 58 59  1  0  0  0  0
 58 60  1  0  0  0  0
 61 62  1  0  0  0  0
M  CHG  1   8  -1
M  CHG  1  26  -1
M  END
$$$$
ptp1b_wilson_48
  MOE2024           3D
ptp1b_wilson_48
 67 70  0  0  0  0  0  0  0  0999 V2000
   44.6510   14.0740    0.6210 S   0  0  0  0  0  0  0  0  0  0  0  0
   44.7900   15.4820    1.5710 C   0  0  0  0  0  0  0  0  0  0  0  0
   45.6940   15.2460    2.6400 C   0  0  0  0  0  0  0  0  0  0  0  0
   46.2290   13.9270    2.6200 C   0  0  0  0  0  0  0  0  0  0  0  0
   45.7340   13.1350    1.5470 C   0  0  0  0  0  0  0  0  0  0  0  0
   44.0570   16.6430    1.2480 C   0  0  0  0  0  0  0  0  0  0  0  0
   43.4980   16.6800    0.1500 O   0  0  0  0  0  0  0  0  0  0  0  0
   43.9810   17.5810    2.0360 O   0  5  0  0  0  0  0  0  0  0  0  0
   46.0160   11.7110    1.1830 C   0  0  0  0  0  0  0  0  0  0  0  0
   47.2610   11.0370    1.4450 C   0  0  0  0  0  0  0  0  0  0  0  0
   48.0773   11.5626    1.9181 H   0  0  0  0  0  0  0  0  0  0  0  0
   47.4050    9.6640    1.0720 C   0  0  0  0  0  0  0  0  0  0  0  0
   46.3290    8.9560    0.4400 C   0  0  0  0  0  0  0  0  0  0  0  0
   46.4561    7.9192    0.1655 H   0  0  0  0  0  0  0  0  0  0  0  0
   45.0950    9.6130    0.1730 C   0  0  0  0  0  0  0  0  0  0  0  0
   44.2837    9.0851   -0.3060 H   0  0  0  0  0  0  0  0  0  0  0  0
   44.9490   10.9800    0.5490 C   0  0  0  0  0  0  0  0  0  0  0  0
   44.0127   11.4815    0.3532 H   0  0  0  0  0  0  0  0  0  0  0  0
   47.4770   13.3320    3.9450 Br  0  0  0  0  0  0  0  0  0  0  0  0
   46.0630   16.1740    3.6490 O   0  0  0  0  0  0  0  0  0  0  0  0
   47.2490   16.9320    3.4120 C   0  0  0  0  0  0  0  0  0  0  0  0
   47.0569   17.6950    2.6577 H   0  0  0  0  0  0  0  0  0  0  0  0
   48.0471   16.2740    3.0682 H   0  0  0  0  0  0  0  0  0  0  0  0
   47.6510   17.5920    4.7270 C   0  0  0  0  0  0  0  0  0  0  0  0
   46.8770   17.5250    5.6970 O   0  0  0  0  0  0  0  0  0  0  0  0
   48.7320   18.1660    4.7830 O   0  5  0  0  0  0  0  0  0  0  0  0
   48.6210    8.9650    1.3420 N   0  0  0  0  0  0  0  0  0  0  0  0
   49.3906    9.5529    1.0555 H   0  0  0  0  0  0  0  0  0  0  0  0
   49.1550    7.7650    1.8570 C   0  0  0  0  0  0  0  0  0  0  0  0
   48.9897    6.9563    1.1451 H   0  0  0  0  0  0  0  0  0  0  0  0
   50.6800    7.8220    2.0380 C   0  0  0  0  0  0  0  0  0  0  0  0
   50.9377    8.6089    2.7469 H   0  0  0  0  0  0  0  0  0  0  0  0
   51.1574    8.0259    1.0795 H   0  0  0  0  0  0  0  0  0  0  0  0
   51.1244    6.4579    2.5852 C   0  0  0  0  0  0  0  0  0  0  0  0
   52.1928    6.5103    2.7610 H   0  0  0  0  0  0  0  0  0  0  0  0
   50.8568    5.6739    1.8872 H   0  0  0  0  0  0  0  0  0  0  0  0
   50.4085    6.2875    3.8558 N   0  0  0  0  0  0  0  0  0  0  0  0
   48.9485    6.1225    3.7110 C   0  0  0  0  0  0  0  0  0  0  0  0
   48.4880    5.9435    4.6762 H   0  0  0  0  0  0  0  0  0  0  0  0
   48.7194    5.3411    2.9970 H   0  0  0  0  0  0  0  0  0  0  0  0
   48.4240    7.4700    3.1930 C   0  0  0  0  0  0  0  0  0  0  0  0
   47.3494    7.4380    3.0131 H   0  0  0  0  0  0  0  0  0  0  0  0
   48.6494    8.2626    3.9065 H   0  0  0  0  0  0  0  0  0  0  0  0
   51.1845    5.5933    5.1458 S   0  0  0  0  0  0  0  0  0  0  0  0
   51.2686    3.8536    4.7348 C   0  0  0  0  0  0  0  0  0  0  0  0
   52.0136    3.6613    3.9787 H   0  0  0  0  0  0  0  0  0  0  0  0
   50.3283    3.4933    4.3472 H   0  0  0  0  0  0  0  0  0  0  0  0
   52.5127    6.0944    5.2192 O   0  0  0  0  0  0  0  0  0  0  0  0
   50.3691    5.7485    6.3031 O   0  0  0  0  0  0  0  0  0  0  0  0
   52.1612    1.0859    7.9388 C   0  0  0  0  0  0  0  0  0  0  0  0
   52.3853    0.4076    8.7224 H   0  0  0  0  0  0  0  0  0  0  0  0
   53.1407    1.4154    7.0034 C   0  0  0  0  0  0  0  0  0  0  0  0
   54.1076    0.9865    7.0788 H   0  0  0  0  0  0  0  0  0  0  0  0
   52.8569    2.3110    5.9730 C   0  0  0  0  0  0  0  0  0  0  0  0
   53.6178    2.5564    5.2760 H   0  0  0  0  0  0  0  0  0  0  0  0
   51.5901    2.8818    5.8628 C   0  0  0  0  0  0  0  0  0  0  0  0
   50.6215    2.5458    6.8153 C   0  0  0  0  0  0  0  0  0  0  0  0
   49.3518    3.1440    6.7358 N   0  0  0  0  0  0  0  0  0  0  0  0
   49.2898    4.1723    6.8721 H   0  0  0  0  0  0  0  0  0  0  0  0
   50.8957    1.6536    7.8503 C   0  0  0  0  0  0  0  0  0  0  0  0
   50.1503    1.4228    8.5667 H   0  0  0  0  0  0  0  0  0  0  0  0
   48.2144    2.5391    6.3131 C   0  0  0  0  0  0  0  0  0  0  0  0
   48.1796    1.0540    6.0588 C   0  0  0  0  0  0  0  0  0  0  0  0
   48.9583    0.8314    5.3449 H   0  0  0  0  0  0  0  0  0  0  0  0
   47.1985    0.8204    5.6714 H   0  0  0  0  0  0  0  0  0  0  0  0
   48.3606    0.5665    7.0047 H   0  0  0  0  0  0  0  0  0  0  0  0
   47.2665    3.2593    6.1089 O   0  0  0  0  0  0  0  0  0  0  0  0
  1  2  1  0  0  0  0
  1  5  1  0  0  0  0
  2  3  2  0  0  0  0
  2  6  1  0  0  0  0
  3  4  1  0  0  0  0
  3 20  1  0  0  0  0
  4  5  2  0  0  0  0
  4 19  1  0  0  0  0
  5  9  1  0  0  0  0
  6  7  2  0  0  0  0
  6  8  1  0  0  0  0
  9 10  1  0  0  0  0
  9 17  2  0  0  0  0
 10 11  1  0  0  0  0
 10 12  2  0  0  0  0
 12 13  1  0  0  0  0
 12 27  1  0  0  0  0
 13 14  1  0  0  0  0
 13 15  2  0  0  0  0
 15 16  1  0  0  0  0
 15 17  1  0  0  0  0
 17 18  1  0  0  0  0
 20 21  1  0  0  0  0
 21 22  1  0  0  0  0
 21 23  1  0  0  0  0
 21 24  1  0  0  0  0
 24 25  2  0  0  0  0
 24 26  1  0  0  0  0
 27 28  1  0  0  0  0
 27 29  1  0  0  0  0
 29 30  1  0  0  0  0
 29 31  1  0  0  0  0
 29 41  1  0  0  0  0
 31 32  1  0  0  0  0
 31 33  1  0  0  0  0
 31 34  1  0  0  0  0
 34 35  1  0  0  0  0
 34 36  1  0  0  0  0
 34 37  1  0  0  0  0
 37 38  1  0  0  0  0
 37 44  1  0  0  0  0
 38 39  1  0  0  0  0
 38 40  1  0  0  0  0
 38 41  1  0  0  0  0
 41 42  1  0  0  0  0
 41 43  1  0  0  0  0
 44 45  1  0  0  0  0
 44 48  2  0  0  0  0
 44 49  2  0  0  0  0
 45 46  1  0  0  0  0
 45 47  1  0  0  0  0
 45 56  1  0  0  0  0
 50 51  1  0  0  0  0
 50 52  1  0  0  0  0
 50 60  2  0  0  0  0
 52 53  1  0  0  0  0
 52 54  2  0  0  0  0
 54 55  1  0  0  0  0
 54 56  1  0  0  0  0
 56 57  2  0  0  0  0
 57 58  1  0  0  0  0
 57 60  1  0  0  0  0
 58 59  1  0  0  0  0
 58 62  1  0  0  0  0
 60 61  1  0  0  0  0
 62 63  1  0  0  0  0
 62 67  2  0  0  0  0
 63 64  1  0  0  0  0
 63 65  1  0  0  0  0
 63 66  1  0  0  0  0
M  CHG  1   8  -1
M  CHG  1  26  -1
M  END
$$$$
ptp1b_wilson_49
  MOE2024           3D
ptp1b_wilson_49
 72 75  0  0  0  0  0  0  0  0999 V2000
   44.6510   14.0740    0.6210 S   0  0  0  0  0  0  0  0  0  0  0  0
   44.7900   15.4820    1.5710 C   0  0  0  0  0  0  0  0  0  0  0  0
   45.6940   15.2460    2.6400 C   0  0  0  0  0  0  0  0  0  0  0  0
   46.2290   13.9270    2.6200 C   0  0  0  0  0  0  0  0  0  0  0  0
   45.7340   13.1350    1.5470 C   0  0  0  0  0  0  0  0  0  0  0  0
   44.0570   16.6430    1.2480 C   0  0  0  0  0  0  0  0  0  0  0  0
   43.4980   16.6800    0.1500 O   0  0  0  0  0  0  0  0  0  0  0  0
   43.9810   17.5810    2.0360 O   0  5  0  0  0  0  0  0  0  0  0  0
   46.0160   11.7110    1.1830 C   0  0  0  0  0  0  0  0  0  0  0  0
   47.2610   11.0370    1.4450 C   0  0  0  0  0  0  0  0  0  0  0  0
   48.0773   11.5626    1.9181 H   0  0  0  0  0  0  0  0  0  0  0  0
   47.4050    9.6640    1.0720 C   0  0  0  0  0  0  0  0  0  0  0  0
   46.3290    8.9560    0.4400 C   0  0  0  0  0  0  0  0  0  0  0  0
   46.4561    7.9192    0.1655 H   0  0  0  0  0  0  0  0  0  0  0  0
   45.0950    9.6130    0.1730 C   0  0  0  0  0  0  0  0  0  0  0  0
   44.2837    9.0851   -0.3060 H   0  0  0  0  0  0  0  0  0  0  0  0
   44.9490   10.9800    0.5490 C   0  0  0  0  0  0  0  0  0  0  0  0
   44.0127   11.4815    0.3532 H   0  0  0  0  0  0  0  0  0  0  0  0
   47.4770   13.3320    3.9450 Br  0  0  0  0  0  0  0  0  0  0  0  0
   46.0630   16.1740    3.6490 O   0  0  0  0  0  0  0  0  0  0  0  0
   47.2490   16.9320    3.4120 C   0  0  0  0  0  0  0  0  0  0  0  0
   47.0569   17.6950    2.6577 H   0  0  0  0  0  0  0  0  0  0  0  0
   48.0471   16.2740    3.0682 H   0  0  0  0  0  0  0  0  0  0  0  0
   47.6510   17.5920    4.7270 C   0  0  0  0  0  0  0  0  0  0  0  0
   46.8770   17.5250    5.6970 O   0  0  0  0  0  0  0  0  0  0  0  0
   48.7320   18.1660    4.7830 O   0  5  0  0  0  0  0  0  0  0  0  0
   48.6210    8.9650    1.3420 N   0  0  0  0  0  0  0  0  0  0  0  0
   49.3906    9.5529    1.0555 H   0  0  0  0  0  0  0  0  0  0  0  0
   49.1550    7.7650    1.8570 C   0  0  0  0  0  0  0  0  0  0  0  0
   48.9897    6.9563    1.1451 H   0  0  0  0  0  0  0  0  0  0  0  0
   50.6800    7.8220    2.0380 C   0  0  0  0  0  0  0  0  0  0  0  0
   50.9377    8.6089    2.7469 H   0  0  0  0  0  0  0  0  0  0  0  0
   51.1574    8.0259    1.0795 H   0  0  0  0  0  0  0  0  0  0  0  0
   51.1217    6.4563    2.5879 C   0  0  0  0  0  0  0  0  0  0  0  0
   52.1898    6.5066    2.7648 H   0  0  0  0  0  0  0  0  0  0  0  0
   50.8533    5.6719    1.8906 H   0  0  0  0  0  0  0  0  0  0  0  0
   50.4052    6.2861    3.8586 N   0  0  0  0  0  0  0  0  0  0  0  0
   48.9448    6.1222    3.7105 C   0  0  0  0  0  0  0  0  0  0  0  0
   48.4817    5.9466    4.6746 H   0  0  0  0  0  0  0  0  0  0  0  0
   48.7136    5.3386    2.9993 H   0  0  0  0  0  0  0  0  0  0  0  0
   48.4240    7.4700    3.1930 C   0  0  0  0  0  0  0  0  0  0  0  0
   47.3494    7.4380    3.0131 H   0  0  0  0  0  0  0  0  0  0  0  0
   48.6494    8.2626    3.9065 H   0  0  0  0  0  0  0  0  0  0  0  0
   51.1710    5.5706    5.1431 S   0  0  0  0  0  0  0  0  0  0  0  0
   51.2185    3.8288    4.7268 C   0  0  0  0  0  0  0  0  0  0  0  0
   52.0164    3.6105    4.0343 H   0  0  0  0  0  0  0  0  0  0  0  0
   50.3031    3.5123    4.2519 H   0  0  0  0  0  0  0  0  0  0  0  0
   52.5101    6.0431    5.2160 O   0  0  0  0  0  0  0  0  0  0  0  0
   50.3625    5.7423    6.3034 O   0  0  0  0  0  0  0  0  0  0  0  0
   51.6830    0.9727    7.9469 C   0  0  0  0  0  0  0  0  0  0  0  0
   51.8007    0.2698    8.7321 H   0  0  0  0  0  0  0  0  0  0  0  0
   52.7478    1.2409    7.0886 C   0  0  0  0  0  0  0  0  0  0  0  0
   53.6732    0.7410    7.2241 H   0  0  0  0  0  0  0  0  0  0  0  0
   52.6037    2.1669    6.0559 C   0  0  0  0  0  0  0  0  0  0  0  0
   53.4273    2.3619    5.4167 H   0  0  0  0  0  0  0  0  0  0  0  0
   51.3929    2.8310    5.8662 C   0  0  0  0  0  0  0  0  0  0  0  0
   50.3375    2.5564    6.7445 C   0  0  0  0  0  0  0  0  0  0  0  0
   49.1149    3.2315    6.5917 N   0  0  0  0  0  0  0  0  0  0  0  0
   49.1159    4.2544    6.7610 H   0  0  0  0  0  0  0  0  0  0  0  0
   50.4717    1.6329    7.7794 C   0  0  0  0  0  0  0  0  0  0  0  0
   49.6599    1.4481    8.4348 H   0  0  0  0  0  0  0  0  0  0  0  0
   48.1212    2.8079    5.7696 C   0  0  0  0  0  0  0  0  0  0  0  0
   48.1036    1.4839    5.4930 N   0  0  0  0  0  0  0  0  0  0  0  0
   46.9889    0.8550    4.8061 C   0  0  0  0  0  0  0  0  0  0  0  0
   46.6589    1.4636    3.9603 H   0  0  0  0  0  0  0  0  0  0  0  0
   46.1561    0.6929    5.4940 H   0  0  0  0  0  0  0  0  0  0  0  0
   47.5441   -0.4792    4.3154 C   0  0  0  0  0  0  0  0  0  0  0  0
   48.3904   -0.3077    3.6488 H   0  0  0  0  0  0  0  0  0  0  0  0
   46.7659   -1.0123    3.7691 H   0  0  0  0  0  0  0  0  0  0  0  0
   47.8624   -1.0881    5.1624 H   0  0  0  0  0  0  0  0  0  0  0  0
   48.7597    0.9045    6.0303 H   0  0  0  0  0  0  0  0  0  0  0  0
   47.3317    3.6070    5.2911 O   0  0  0  0  0  0  0  0  0  0  0  0
  1  2  1  0  0  0  0
  1  5  1  0  0  0  0
  2  3  2  0  0  0  0
  2  6  1  0  0  0  0
  3  4  1  0  0  0  0
  3 20  1  0  0  0  0
  4  5  2  0  0  0  0
  4 19  1  0  0  0  0
  5  9  1  0  0  0  0
  6  7  2  0  0  0  0
  6  8  1  0  0  0  0
  9 10  1  0  0  0  0
  9 17  2  0  0  0  0
 10 11  1  0  0  0  0
 10 12  2  0  0  0  0
 12 13  1  0  0  0  0
 12 27  1  0  0  0  0
 13 14  1  0  0  0  0
 13 15  2  0  0  0  0
 15 16  1  0  0  0  0
 15 17  1  0  0  0  0
 17 18  1  0  0  0  0
 20 21  1  0  0  0  0
 21 22  1  0  0  0  0
 21 23  1  0  0  0  0
 21 24  1  0  0  0  0
 24 25  2  0  0  0  0
 24 26  1  0  0  0  0
 27 28  1  0  0  0  0
 27 29  1  0  0  0  0
 29 30  1  0  0  0  0
 29 31  1  0  0  0  0
 29 41  1  0  0  0  0
 31 32  1  0  0  0  0
 31 33  1  0  0  0  0
 31 34  1  0  0  0  0
 34 35  1  0  0  0  0
 34 36  1  0  0  0  0
 34 37  1  0  0  0  0
 37 38  1  0  0  0  0
 37 44  1  0  0  0  0
 38 39  1  0  0  0  0
 38 40  1  0  0  0  0
 38 41  1  0  0  0  0
 41 42  1  0  0  0  0
 41 43  1  0  0  0  0
 44 45  1  0  0  0  0
 44 48  2  0  0  0  0
 44 49  2  0  0  0  0
 45 46  1  0  0  0  0
 45 47  1  0  0  0  0
 45 56  1  0  0  0  0
 50 51  1  0  0  0  0
 50 52  1  0  0  0  0
 50 60  2  0  0  0  0
 52 53  1  0  0  0  0
 52 54  2  0  0  0  0
 54 55  1  0  0  0  0
 54 56  1  0  0  0  0
 56 57  2  0  0  0  0
 57 58  1  0  0  0  0
 57 60  1  0  0  0  0
 58 59  1  0  0  0  0
 58 62  1  0  0  0  0
 60 61  1  0  0  0  0
 62 63  1  0  0  0  0
 62 72  2  0  0  0  0
 63 64  1  0  0  0  0
 63 71  1  0  0  0  0
 64 65  1  0  0  0  0
 64 66  1  0  0  0  0
 64 67  1  0  0  0  0
 67 68  1  0  0  0  0
 67 69  1  0  0  0  0
 67 70  1  0  0  0  0
M  CHG  1   8  -1
M  CHG  1  26  -1
M  END
$$$$
ptp1b_wilson_50
  MOE2024           3D
ptp1b_wilson_50
 68 71  0  0  0  0  0  0  0  0999 V2000
   44.6510   14.0740    0.6210 S   0  0  0  0  0  0  0  0  0  0  0  0
   44.7900   15.4820    1.5710 C   0  0  0  0  0  0  0  0  0  0  0  0
   45.6940   15.2460    2.6400 C   0  0  0  0  0  0  0  0  0  0  0  0
   46.2290   13.9270    2.6200 C   0  0  0  0  0  0  0  0  0  0  0  0
   45.7340   13.1350    1.5470 C   0  0  0  0  0  0  0  0  0  0  0  0
   44.0570   16.6430    1.2480 C   0  0  0  0  0  0  0  0  0  0  0  0
   43.4980   16.6800    0.1500 O   0  0  0  0  0  0  0  0  0  0  0  0
   43.9810   17.5810    2.0360 O   0  5  0  0  0  0  0  0  0  0  0  0
   46.0160   11.7110    1.1830 C   0  0  0  0  0  0  0  0  0  0  0  0
   47.2610   11.0370    1.4450 C   0  0  0  0  0  0  0  0  0  0  0  0
   48.0773   11.5626    1.9181 H   0  0  0  0  0  0  0  0  0  0  0  0
   47.4050    9.6640    1.0720 C   0  0  0  0  0  0  0  0  0  0  0  0
   46.3290    8.9560    0.4400 C   0  0  0  0  0  0  0  0  0  0  0  0
   46.4561    7.9192    0.1655 H   0  0  0  0  0  0  0  0  0  0  0  0
   45.0950    9.6130    0.1730 C   0  0  0  0  0  0  0  0  0  0  0  0
   44.2837    9.0851   -0.3060 H   0  0  0  0  0  0  0  0  0  0  0  0
   44.9490   10.9800    0.5490 C   0  0  0  0  0  0  0  0  0  0  0  0
   44.0127   11.4815    0.3532 H   0  0  0  0  0  0  0  0  0  0  0  0
   47.4770   13.3320    3.9450 Br  0  0  0  0  0  0  0  0  0  0  0  0
   46.0630   16.1740    3.6490 O   0  0  0  0  0  0  0  0  0  0  0  0
   47.2490   16.9320    3.4120 C   0  0  0  0  0  0  0  0  0  0  0  0
   47.0569   17.6950    2.6577 H   0  0  0  0  0  0  0  0  0  0  0  0
   48.0471   16.2740    3.0682 H   0  0  0  0  0  0  0  0  0  0  0  0
   47.6510   17.5920    4.7270 C   0  0  0  0  0  0  0  0  0  0  0  0
   46.8770   17.5250    5.6970 O   0  0  0  0  0  0  0  0  0  0  0  0
   48.7320   18.1660    4.7830 O   0  5  0  0  0  0  0  0  0  0  0  0
   48.6210    8.9650    1.3420 N   0  0  0  0  0  0  0  0  0  0  0  0
   49.3906    9.5529    1.0555 H   0  0  0  0  0  0  0  0  0  0  0  0
   49.1550    7.7650    1.8570 C   0  0  0  0  0  0  0  0  0  0  0  0
   48.9897    6.9563    1.1451 H   0  0  0  0  0  0  0  0  0  0  0  0
   50.6800    7.8220    2.0380 C   0  0  0  0  0  0  0  0  0  0  0  0
   50.9377    8.6089    2.7469 H   0  0  0  0  0  0  0  0  0  0  0  0
   51.1574    8.0259    1.0795 H   0  0  0  0  0  0  0  0  0  0  0  0
   51.1209    6.4530    2.5783 C   0  0  0  0  0  0  0  0  0  0  0  0
   52.1893    6.5058    2.7541 H   0  0  0  0  0  0  0  0  0  0  0  0
   50.8575    5.6753    1.8717 H   0  0  0  0  0  0  0  0  0  0  0  0
   50.4075    6.2597    3.8511 N   0  0  0  0  0  0  0  0  0  0  0  0
   48.9446    6.1177    3.6982 C   0  0  0  0  0  0  0  0  0  0  0  0
   48.4827    5.9318    4.6609 H   0  0  0  0  0  0  0  0  0  0  0  0
   48.7087    5.3431    2.9783 H   0  0  0  0  0  0  0  0  0  0  0  0
   48.4240    7.4700    3.1930 C   0  0  0  0  0  0  0  0  0  0  0  0
   47.3494    7.4380    3.0131 H   0  0  0  0  0  0  0  0  0  0  0  0
   48.6494    8.2626    3.9065 H   0  0  0  0  0  0  0  0  0  0  0  0
   51.1766    5.5568    5.1425 S   0  0  0  0  0  0  0  0  0  0  0  0
   51.2239    3.8063    4.7525 C   0  0  0  0  0  0  0  0  0  0  0  0
   51.8243    3.6300    3.8741 H   0  0  0  0  0  0  0  0  0  0  0  0
   50.2263    3.4391    4.5665 H   0  0  0  0  0  0  0  0  0  0  0  0
   52.5138    6.0349    5.1978 O   0  0  0  0  0  0  0  0  0  0  0  0
   50.3772    5.7347    6.3036 O   0  0  0  0  0  0  0  0  0  0  0  0
   52.7072    0.9681    7.6796 C   0  0  0  0  0  0  0  0  0  0  0  0
   53.0521    0.2778    8.4065 H   0  0  0  0  0  0  0  0  0  0  0  0
   52.8139    2.3333    7.9135 C   0  0  0  0  0  0  0  0  0  0  0  0
   53.2441    2.6840    8.8171 H   0  0  0  0  0  0  0  0  0  0  0  0
   52.3498    3.2422    6.9681 C   0  0  0  0  0  0  0  0  0  0  0  0
   52.4388    4.2760    7.1876 H   0  0  0  0  0  0  0  0  0  0  0  0
   51.7771    2.8041    5.7704 C   0  0  0  0  0  0  0  0  0  0  0  0
   51.7043    1.4184    5.5286 C   0  0  0  0  0  0  0  0  0  0  0  0
   51.1600    0.9699    4.3055 N   0  0  0  0  0  0  0  0  0  0  0  0
   51.2500    1.6527    3.5585 H   0  0  0  0  0  0  0  0  0  0  0  0
   52.1498    0.5067    6.4957 C   0  0  0  0  0  0  0  0  0  0  0  0
   52.0693   -0.5369    6.3420 H   0  0  0  0  0  0  0  0  0  0  0  0
   51.6455   -0.4779    3.6573 S   0  0  0  0  0  0  0  0  0  0  0  0
   51.0210   -0.4608    1.9993 C   0  0  0  0  0  0  0  0  0  0  0  0
   51.2152   -1.3892    1.4833 H   0  0  0  0  0  0  0  0  0  0  0  0
   51.4559    0.3085    1.3806 H   0  0  0  0  0  0  0  0  0  0  0  0
   49.9490   -0.3439    1.9529 H   0  0  0  0  0  0  0  0  0  0  0  0
   53.0588   -0.4928    3.6068 O   0  0  0  0  0  0  0  0  0  0  0  0
   51.0174   -1.5345    4.3583 O   0  0  0  0  0  0  0  0  0  0  0  0
  1  2  1  0  0  0  0
  1  5  1  0  0  0  0
  2  3  2  0  0  0  0
  2  6  1  0  0  0  0
  3  4  1  0  0  0  0
  3 20  1  0  0  0  0
  4  5  2  0  0  0  0
  4 19  1  0  0  0  0
  5  9  1  0  0  0  0
  6  7  2  0  0  0  0
  6  8  1  0  0  0  0
  9 10  1  0  0  0  0
  9 17  2  0  0  0  0
 10 11  1  0  0  0  0
 10 12  2  0  0  0  0
 12 13  1  0  0  0  0
 12 27  1  0  0  0  0
 13 14  1  0  0  0  0
 13 15  2  0  0  0  0
 15 16  1  0  0  0  0
 15 17  1  0  0  0  0
 17 18  1  0  0  0  0
 20 21  1  0  0  0  0
 21 22  1  0  0  0  0
 21 23  1  0  0  0  0
 21 24  1  0  0  0  0
 24 25  2  0  0  0  0
 24 26  1  0  0  0  0
 27 28  1  0  0  0  0
 27 29  1  0  0  0  0
 29 30  1  0  0  0  0
 29 31  1  0  0  0  0
 29 41  1  0  0  0  0
 31 32  1  0  0  0  0
 31 33  1  0  0  0  0
 31 34  1  0  0  0  0
 34 35  1  0  0  0  0
 34 36  1  0  0  0  0
 34 37  1  0  0  0  0
 37 38  1  0  0  0  0
 37 44  1  0  0  0  0
 38 39  1  0  0  0  0
 38 40  1  0  0  0  0
 38 41  1  0  0  0  0
 41 42  1  0  0  0  0
 41 43  1  0  0  0  0
 44 45  1  0  0  0  0
 44 48  2  0  0  0  0
 44 49  2  0  0  0  0
 45 46  1  0  0  0  0
 45 47  1  0  0  0  0
 45 56  1  0  0  0  0
 50 51  1  0  0  0  0
 50 52  1  0  0  0  0
 50 60  2  0  0  0  0
 52 53  1  0  0  0  0
 52 54  2  0  0  0  0
 54 55  1  0  0  0  0
 54 56  1  0  0  0  0
 56 57  2  0  0  0  0
 57 58  1  0  0  0  0
 57 60  1  0  0  0  0
 58 59  1  0  0  0  0
 58 62  1  0  0  0  0
 60 61  1  0  0  0  0
 62 63  1  0  0  0  0
 62 67  2  0  0  0  0
 62 68  2  0  0  0  0
 63 64  1  0  0  0  0
 63 65  1  0  0  0  0
 63 66  1  0  0  0  0
M  CHG  1   8  -1
M  CHG  1  26  -1
M  END
$$$$
ptp1b_wilson_51
  MOE2024           3D
ptp1b_wilson_51
 61 64  0  0  0  0  0  0  0  0999 V2000
   44.6510   14.0740    0.6210 S   0  0  0  0  0  0  0  0  0  0  0  0
   44.7900   15.4820    1.5710 C   0  0  0  0  0  0  0  0  0  0  0  0
   45.6940   15.2460    2.6400 C   0  0  0  0  0  0  0  0  0  0  0  0
   46.2290   13.9270    2.6200 C   0  0  0  0  0  0  0  0  0  0  0  0
   45.7340   13.1350    1.5470 C   0  0  0  0  0  0  0  0  0  0  0  0
   44.0570   16.6430    1.2480 C   0  0  0  0  0  0  0  0  0  0  0  0
   43.4980   16.6800    0.1500 O   0  0  0  0  0  0  0  0  0  0  0  0
   43.9810   17.5810    2.0360 O   0  5  0  0  0  0  0  0  0  0  0  0
   46.0160   11.7110    1.1830 C   0  0  0  0  0  0  0  0  0  0  0  0
   47.2610   11.0370    1.4450 C   0  0  0  0  0  0  0  0  0  0  0  0
   48.0773   11.5626    1.9181 H   0  0  0  0  0  0  0  0  0  0  0  0
   47.4050    9.6640    1.0720 C   0  0  0  0  0  0  0  0  0  0  0  0
   46.3290    8.9560    0.4400 C   0  0  0  0  0  0  0  0  0  0  0  0
   46.4561    7.9192    0.1655 H   0  0  0  0  0  0  0  0  0  0  0  0
   45.0950    9.6130    0.1730 C   0  0  0  0  0  0  0  0  0  0  0  0
   44.2837    9.0851   -0.3060 H   0  0  0  0  0  0  0  0  0  0  0  0
   44.9490   10.9800    0.5490 C   0  0  0  0  0  0  0  0  0  0  0  0
   44.0127   11.4815    0.3532 H   0  0  0  0  0  0  0  0  0  0  0  0
   47.4770   13.3320    3.9450 Br  0  0  0  0  0  0  0  0  0  0  0  0
   46.0630   16.1740    3.6490 O   0  0  0  0  0  0  0  0  0  0  0  0
   47.2490   16.9320    3.4120 C   0  0  0  0  0  0  0  0  0  0  0  0
   47.0569   17.6950    2.6577 H   0  0  0  0  0  0  0  0  0  0  0  0
   48.0471   16.2740    3.0682 H   0  0  0  0  0  0  0  0  0  0  0  0
   47.6510   17.5920    4.7270 C   0  0  0  0  0  0  0  0  0  0  0  0
   46.8770   17.5250    5.6970 O   0  0  0  0  0  0  0  0  0  0  0  0
   48.7320   18.1660    4.7830 O   0  5  0  0  0  0  0  0  0  0  0  0
   48.6210    8.9650    1.3420 N   0  0  0  0  0  0  0  0  0  0  0  0
   49.3906    9.5529    1.0555 H   0  0  0  0  0  0  0  0  0  0  0  0
   48.8319    7.5900    0.8854 C   0  0  0  0  0  0  0  0  0  0  0  0
   48.7013    7.5099   -0.1963 H   0  0  0  0  0  0  0  0  0  0  0  0
   48.1325    6.9245    1.3961 H   0  0  0  0  0  0  0  0  0  0  0  0
   52.7448    6.1012    0.5337 N   0  0  0  0  0  0  0  0  0  0  0  0
   52.7240    7.5464    0.8107 C   0  0  0  0  0  0  0  0  0  0  0  0
   53.4513    8.0717    0.2037 H   0  0  0  0  0  0  0  0  0  0  0  0
   52.8838    7.7241    1.8664 H   0  0  0  0  0  0  0  0  0  0  0  0
   51.3059    8.0081    0.4182 C   0  0  0  0  0  0  0  0  0  0  0  0
   51.1442    7.8255   -0.6461 H   0  0  0  0  0  0  0  0  0  0  0  0
   51.2245    9.0772    0.6110 H   0  0  0  0  0  0  0  0  0  0  0  0
   50.2753    7.2186    1.2670 C   0  0  0  0  0  0  0  0  0  0  0  0
   50.4223    7.4508    2.3245 H   0  0  0  0  0  0  0  0  0  0  0  0
   50.4509    5.6948    1.0626 C   0  0  0  0  0  0  0  0  0  0  0  0
   50.2637    5.4262    0.0208 H   0  0  0  0  0  0  0  0  0  0  0  0
   49.7566    5.1501    1.7038 H   0  0  0  0  0  0  0  0  0  0  0  0
   51.8943    5.3242    1.4535 C   0  0  0  0  0  0  0  0  0  0  0  0
   52.0447    4.2591    1.3455 H   0  0  0  0  0  0  0  0  0  0  0  0
   52.0790    5.6397    2.4731 H   0  0  0  0  0  0  0  0  0  0  0  0
   53.1481    5.6765   -0.7198 C   0  0  0  0  0  0  0  0  0  0  0  0
   53.6876    6.4331   -1.5192 O   0  0  0  0  0  0  0  0  0  0  0  0
   52.8722    4.3705   -1.0162 N   0  0  0  0  0  0  0  0  0  0  0  0
   52.3445    3.8846   -0.2893 H   0  0  0  0  0  0  0  0  0  0  0  0
   53.0828    2.3833   -4.7222 C   0  0  0  0  0  0  0  0  0  0  0  0
   53.1266    1.8808   -5.6552 H   0  0  0  0  0  0  0  0  0  0  0  0
   54.0066    3.3850   -4.4312 C   0  0  0  0  0  0  0  0  0  0  0  0
   54.7514    3.6409   -5.1415 H   0  0  0  0  0  0  0  0  0  0  0  0
   53.9565    4.0526   -3.2091 C   0  0  0  0  0  0  0  0  0  0  0  0
   54.6695    4.8049   -2.9918 H   0  0  0  0  0  0  0  0  0  0  0  0
   52.9704    3.7206   -2.2784 C   0  0  0  0  0  0  0  0  0  0  0  0
   52.0443    2.7021   -2.5654 C   0  0  0  0  0  0  0  0  0  0  0  0
   50.8223    2.2582   -1.4113 Cl  0  0  0  0  0  0  0  0  0  0  0  0
   52.1043    2.0404   -3.7909 C   0  0  0  0  0  0  0  0  0  0  0  0
   51.4029    1.2772   -4.0093 H   0  0  0  0  0  0  0  0  0  0  0  0
  1  2  1  0  0  0  0
  1  5  1  0  0  0  0
  2  3  2  0  0  0  0
  2  6  1  0  0  0  0
  3  4  1  0  0  0  0
  3 20  1  0  0  0  0
  4  5  2  0  0  0  0
  4 19  1  0  0  0  0
  5  9  1  0  0  0  0
  6  7  2  0  0  0  0
  6  8  1  0  0  0  0
  9 10  1  0  0  0  0
  9 17  2  0  0  0  0
 10 11  1  0  0  0  0
 10 12  2  0  0  0  0
 12 13  1  0  0  0  0
 12 27  1  0  0  0  0
 13 14  1  0  0  0  0
 13 15  2  0  0  0  0
 15 16  1  0  0  0  0
 15 17  1  0  0  0  0
 17 18  1  0  0  0  0
 20 21  1  0  0  0  0
 21 22  1  0  0  0  0
 21 23  1  0  0  0  0
 21 24  1  0  0  0  0
 24 25  2  0  0  0  0
 24 26  1  0  0  0  0
 27 28  1  0  0  0  0
 27 29  1  0  0  0  0
 29 30  1  0  0  0  0
 29 31  1  0  0  0  0
 29 39  1  0  0  0  0
 32 33  1  0  0  0  0
 32 44  1  0  0  0  0
 32 47  1  0  0  0  0
 33 34  1  0  0  0  0
 33 35  1  0  0  0  0
 33 36  1  0  0  0  0
 36 37  1  0  0  0  0
 36 38  1  0  0  0  0
 36 39  1  0  0  0  0
 39 40  1  0  0  0  0
 39 41  1  0  0  0  0
 41 42  1  0  0  0  0
 41 43  1  0  0  0  0
 41 44  1  0  0  0  0
 44 45  1  0  0  0  0
 44 46  1  0  0  0  0
 47 48  2  0  0  0  0
 47 49  1  0  0  0  0
 49 50  1  0  0  0  0
 49 57  1  0  0  0  0
 51 52  1  0  0  0  0
 51 53  1  0  0  0  0
 51 60  2  0  0  0  0
 53 54  1  0  0  0  0
 53 55  2  0  0  0  0
 55 56  1  0  0  0  0
 55 57  1  0  0  0  0
 57 58  2  0  0  0  0
 58 59  1  0  0  0  0
 58 60  1  0  0  0  0
 60 61  1  0  0  0  0
M  CHG  1   8  -1
M  CHG  1  26  -1
M  END
$$$$
ptp1b_wilson_52
  MOE2024           3D
ptp1b_wilson_52
 65 68  0  0  0  0  0  0  0  0999 V2000
   44.6510   14.0740    0.6210 S   0  0  0  0  0  0  0  0  0  0  0  0
   44.7900   15.4820    1.5710 C   0  0  0  0  0  0  0  0  0  0  0  0
   45.6940   15.2460    2.6400 C   0  0  0  0  0  0  0  0  0  0  0  0
   46.2290   13.9270    2.6200 C   0  0  0  0  0  0  0  0  0  0  0  0
   45.7340   13.1350    1.5470 C   0  0  0  0  0  0  0  0  0  0  0  0
   44.0570   16.6430    1.2480 C   0  0  0  0  0  0  0  0  0  0  0  0
   43.4980   16.6800    0.1500 O   0  0  0  0  0  0  0  0  0  0  0  0
   43.9810   17.5810    2.0360 O   0  5  0  0  0  0  0  0  0  0  0  0
   46.0160   11.7110    1.1830 C   0  0  0  0  0  0  0  0  0  0  0  0
   47.2610   11.0370    1.4450 C   0  0  0  0  0  0  0  0  0  0  0  0
   48.0773   11.5626    1.9181 H   0  0  0  0  0  0  0  0  0  0  0  0
   47.4050    9.6640    1.0720 C   0  0  0  0  0  0  0  0  0  0  0  0
   46.3290    8.9560    0.4400 C   0  0  0  0  0  0  0  0  0  0  0  0
   46.4561    7.9192    0.1655 H   0  0  0  0  0  0  0  0  0  0  0  0
   45.0950    9.6130    0.1730 C   0  0  0  0  0  0  0  0  0  0  0  0
   44.2837    9.0851   -0.3060 H   0  0  0  0  0  0  0  0  0  0  0  0
   44.9490   10.9800    0.5490 C   0  0  0  0  0  0  0  0  0  0  0  0
   44.0127   11.4815    0.3532 H   0  0  0  0  0  0  0  0  0  0  0  0
   47.4770   13.3320    3.9450 Br  0  0  0  0  0  0  0  0  0  0  0  0
   46.0630   16.1740    3.6490 O   0  0  0  0  0  0  0  0  0  0  0  0
   47.2490   16.9320    3.4120 C   0  0  0  0  0  0  0  0  0  0  0  0
   47.0569   17.6950    2.6577 H   0  0  0  0  0  0  0  0  0  0  0  0
   48.0471   16.2740    3.0682 H   0  0  0  0  0  0  0  0  0  0  0  0
   47.6510   17.5920    4.7270 C   0  0  0  0  0  0  0  0  0  0  0  0
   46.8770   17.5250    5.6970 O   0  0  0  0  0  0  0  0  0  0  0  0
   48.7320   18.1660    4.7830 O   0  5  0  0  0  0  0  0  0  0  0  0
   48.6210    8.9650    1.3420 N   0  0  0  0  0  0  0  0  0  0  0  0
   49.3906    9.5529    1.0555 H   0  0  0  0  0  0  0  0  0  0  0  0
   48.8357    7.5912    0.8841 C   0  0  0  0  0  0  0  0  0  0  0  0
   48.7144    7.5142   -0.1988 H   0  0  0  0  0  0  0  0  0  0  0  0
   48.1330    6.9240    1.3876 H   0  0  0  0  0  0  0  0  0  0  0  0
   52.7596    6.1244    0.5693 N   0  0  0  0  0  0  0  0  0  0  0  0
   52.7292    7.5642    0.8658 C   0  0  0  0  0  0  0  0  0  0  0  0
   53.4635    8.1018    0.2786 H   0  0  0  0  0  0  0  0  0  0  0  0
   52.8697    7.7271    1.9265 H   0  0  0  0  0  0  0  0  0  0  0  0
   51.3162    8.0236    0.4543 C   0  0  0  0  0  0  0  0  0  0  0  0
   51.1738    7.8510   -0.6144 H   0  0  0  0  0  0  0  0  0  0  0  0
   51.2276    9.0900    0.6579 H   0  0  0  0  0  0  0  0  0  0  0  0
   50.2759    7.2196    1.2774 C   0  0  0  0  0  0  0  0  0  0  0  0
   50.4085    7.4367    2.3400 H   0  0  0  0  0  0  0  0  0  0  0  0
   50.4592    5.6994    1.0525 C   0  0  0  0  0  0  0  0  0  0  0  0
   50.2893    5.4461    0.0039 H   0  0  0  0  0  0  0  0  0  0  0  0
   49.7581    5.1428    1.6756 H   0  0  0  0  0  0  0  0  0  0  0  0
   51.8977    5.3252    1.4574 C   0  0  0  0  0  0  0  0  0  0  0  0
   52.0551    4.2632    1.3272 H   0  0  0  0  0  0  0  0  0  0  0  0
   52.0659    5.6186    2.4863 H   0  0  0  0  0  0  0  0  0  0  0  0
   53.2339    5.7085   -0.6624 C   0  0  0  0  0  0  0  0  0  0  0  0
   53.8608    6.4607   -1.4006 O   0  0  0  0  0  0  0  0  0  0  0  0
   52.9269    4.4209   -1.0052 N   0  0  0  0  0  0  0  0  0  0  0  0
   52.2986    3.9476   -0.3538 H   0  0  0  0  0  0  0  0  0  0  0  0
   53.4674    2.2601   -4.5701 C   0  0  0  0  0  0  0  0  0  0  0  0
   53.5917    1.7088   -5.4671 H   0  0  0  0  0  0  0  0  0  0  0  0
   54.2927    3.3536   -4.3094 C   0  0  0  0  0  0  0  0  0  0  0  0
   55.0419    3.6282   -5.0073 H   0  0  0  0  0  0  0  0  0  0  0  0
   54.1404    4.0881   -3.1356 C   0  0  0  0  0  0  0  0  0  0  0  0
   54.7800    4.9089   -2.9436 H   0  0  0  0  0  0  0  0  0  0  0  0
   53.1483    3.7279   -2.2209 C   0  0  0  0  0  0  0  0  0  0  0  0
   52.3253    2.6212   -2.4782 C   0  0  0  0  0  0  0  0  0  0  0  0
   51.3562    2.2821   -1.5298 O   0  0  0  0  0  0  0  0  0  0  0  0
   50.4219    1.1867   -1.6681 C   0  0  0  0  0  0  0  0  0  0  0  0
   50.9891    0.2591   -1.7528 H   0  0  0  0  0  0  0  0  0  0  0  0
   49.8158    1.3619   -2.5577 H   0  0  0  0  0  0  0  0  0  0  0  0
   49.7933    1.1678   -0.7778 H   0  0  0  0  0  0  0  0  0  0  0  0
   52.4832    1.8888   -3.6553 C   0  0  0  0  0  0  0  0  0  0  0  0
   51.8662    1.0553   -3.8624 H   0  0  0  0  0  0  0  0  0  0  0  0
  1  2  1  0  0  0  0
  1  5  1  0  0  0  0
  2  3  2  0  0  0  0
  2  6  1  0  0  0  0
  3  4  1  0  0  0  0
  3 20  1  0  0  0  0
  4  5  2  0  0  0  0
  4 19  1  0  0  0  0
  5  9  1  0  0  0  0
  6  7  2  0  0  0  0
  6  8  1  0  0  0  0
  9 10  1  0  0  0  0
  9 17  2  0  0  0  0
 10 11  1  0  0  0  0
 10 12  2  0  0  0  0
 12 13  1  0  0  0  0
 12 27  1  0  0  0  0
 13 14  1  0  0  0  0
 13 15  2  0  0  0  0
 15 16  1  0  0  0  0
 15 17  1  0  0  0  0
 17 18  1  0  0  0  0
 20 21  1  0  0  0  0
 21 22  1  0  0  0  0
 21 23  1  0  0  0  0
 21 24  1  0  0  0  0
 24 25  2  0  0  0  0
 24 26  1  0  0  0  0
 27 28  1  0  0  0  0
 27 29  1  0  0  0  0
 29 30  1  0  0  0  0
 29 31  1  0  0  0  0
 29 39  1  0  0  0  0
 32 33  1  0  0  0  0
 32 44  1  0  0  0  0
 32 47  1  0  0  0  0
 33 34  1  0  0  0  0
 33 35  1  0  0  0  0
 33 36  1  0  0  0  0
 36 37  1  0  0  0  0
 36 38  1  0  0  0  0
 36 39  1  0  0  0  0
 39 40  1  0  0  0  0
 39 41  1  0  0  0  0
 41 42  1  0  0  0  0
 41 43  1  0  0  0  0
 41 44  1  0  0  0  0
 44 45  1  0  0  0  0
 44 46  1  0  0  0  0
 47 48  2  0  0  0  0
 47 49  1  0  0  0  0
 49 50  1  0  0  0  0
 49 57  1  0  0  0  0
 51 52  1  0  0  0  0
 51 53  1  0  0  0  0
 51 64  2  0  0  0  0
 53 54  1  0  0  0  0
 53 55  2  0  0  0  0
 55 56  1  0  0  0  0
 55 57  1  0  0  0  0
 57 58  2  0  0  0  0
 58 59  1  0  0  0  0
 58 64  1  0  0  0  0
 59 60  1  0  0  0  0
 60 61  1  0  0  0  0
 60 62  1  0  0  0  0
 60 63  1  0  0  0  0
 64 65  1  0  0  0  0
M  CHG  1   8  -1
M  CHG  1  26  -1
M  END
$$$$
ptp1b_wilson_53
  MOE2024           3D
ptp1b_wilson_53
 64 67  0  0  0  0  0  0  0  0999 V2000
   44.6510   14.0740    0.6210 S   0  0  0  0  0  0  0  0  0  0  0  0
   44.7900   15.4820    1.5710 C   0  0  0  0  0  0  0  0  0  0  0  0
   45.6940   15.2460    2.6400 C   0  0  0  0  0  0  0  0  0  0  0  0
   46.2290   13.9270    2.6200 C   0  0  0  0  0  0  0  0  0  0  0  0
   45.7340   13.1350    1.5470 C   0  0  0  0  0  0  0  0  0  0  0  0
   44.0570   16.6430    1.2480 C   0  0  0  0  0  0  0  0  0  0  0  0
   43.4980   16.6800    0.1500 O   0  0  0  0  0  0  0  0  0  0  0  0
   43.9810   17.5810    2.0360 O   0  5  0  0  0  0  0  0  0  0  0  0
   46.0160   11.7110    1.1830 C   0  0  0  0  0  0  0  0  0  0  0  0
   47.2610   11.0370    1.4450 C   0  0  0  0  0  0  0  0  0  0  0  0
   48.0773   11.5626    1.9181 H   0  0  0  0  0  0  0  0  0  0  0  0
   47.4050    9.6640    1.0720 C   0  0  0  0  0  0  0  0  0  0  0  0
   46.3290    8.9560    0.4400 C   0  0  0  0  0  0  0  0  0  0  0  0
   46.4561    7.9192    0.1655 H   0  0  0  0  0  0  0  0  0  0  0  0
   45.0950    9.6130    0.1730 C   0  0  0  0  0  0  0  0  0  0  0  0
   44.2837    9.0851   -0.3060 H   0  0  0  0  0  0  0  0  0  0  0  0
   44.9490   10.9800    0.5490 C   0  0  0  0  0  0  0  0  0  0  0  0
   44.0127   11.4815    0.3532 H   0  0  0  0  0  0  0  0  0  0  0  0
   47.4770   13.3320    3.9450 Br  0  0  0  0  0  0  0  0  0  0  0  0
   46.0630   16.1740    3.6490 O   0  0  0  0  0  0  0  0  0  0  0  0
   47.2490   16.9320    3.4120 C   0  0  0  0  0  0  0  0  0  0  0  0
   47.0569   17.6950    2.6577 H   0  0  0  0  0  0  0  0  0  0  0  0
   48.0471   16.2740    3.0682 H   0  0  0  0  0  0  0  0  0  0  0  0
   47.6510   17.5920    4.7270 C   0  0  0  0  0  0  0  0  0  0  0  0
   46.8770   17.5250    5.6970 O   0  0  0  0  0  0  0  0  0  0  0  0
   48.7320   18.1660    4.7830 O   0  5  0  0  0  0  0  0  0  0  0  0
   48.6210    8.9650    1.3420 N   0  0  0  0  0  0  0  0  0  0  0  0
   49.3906    9.5529    1.0555 H   0  0  0  0  0  0  0  0  0  0  0  0
   48.8351    7.5875    0.8992 C   0  0  0  0  0  0  0  0  0  0  0  0
   48.7073    7.4976   -0.1820 H   0  0  0  0  0  0  0  0  0  0  0  0
   48.1369    6.9249    1.4152 H   0  0  0  0  0  0  0  0  0  0  0  0
   52.7588    6.1342    0.5486 N   0  0  0  0  0  0  0  0  0  0  0  0
   52.7255    7.5768    0.8372 C   0  0  0  0  0  0  0  0  0  0  0  0
   53.4498    8.1118    0.2351 H   0  0  0  0  0  0  0  0  0  0  0  0
   52.8828    7.7481    1.8944 H   0  0  0  0  0  0  0  0  0  0  0  0
   51.3052    8.0305    0.4464 C   0  0  0  0  0  0  0  0  0  0  0  0
   51.1463    7.8543   -0.6196 H   0  0  0  0  0  0  0  0  0  0  0  0
   51.2172    9.0976    0.6465 H   0  0  0  0  0  0  0  0  0  0  0  0
   50.2796    7.2271    1.2881 C   0  0  0  0  0  0  0  0  0  0  0  0
   50.4195    7.4577    2.3471 H   0  0  0  0  0  0  0  0  0  0  0  0
   50.4699    5.7057    1.0792 C   0  0  0  0  0  0  0  0  0  0  0  0
   50.2850    5.4401    0.0364 H   0  0  0  0  0  0  0  0  0  0  0  0
   49.7814    5.1536    1.7203 H   0  0  0  0  0  0  0  0  0  0  0  0
   51.9175    5.3447    1.4647 C   0  0  0  0  0  0  0  0  0  0  0  0
   52.0740    4.2818    1.3486 H   0  0  0  0  0  0  0  0  0  0  0  0
   52.1020    5.6550    2.4859 H   0  0  0  0  0  0  0  0  0  0  0  0
   53.1568    5.7234   -0.7124 C   0  0  0  0  0  0  0  0  0  0  0  0
   53.6053    6.5125   -1.5367 O   0  0  0  0  0  0  0  0  0  0  0  0
   52.9890    4.3901   -0.9785 N   0  0  0  0  0  0  0  0  0  0  0  0
   52.5658    3.8614   -0.2195 H   0  0  0  0  0  0  0  0  0  0  0  0
   53.5075    2.3226   -4.5910 C   0  0  0  0  0  0  0  0  0  0  0  0
   53.6335    1.7936   -5.5006 H   0  0  0  0  0  0  0  0  0  0  0  0
   54.3250    3.4114   -4.3025 C   0  0  0  0  0  0  0  0  0  0  0  0
   55.0730    3.7103   -4.9914 H   0  0  0  0  0  0  0  0  0  0  0  0
   54.1636    4.1070   -3.1108 C   0  0  0  0  0  0  0  0  0  0  0  0
   54.7963    4.9264   -2.8901 H   0  0  0  0  0  0  0  0  0  0  0  0
   53.1710    3.7133   -2.2084 C   0  0  0  0  0  0  0  0  0  0  0  0
   52.3435    2.6140   -2.4870 C   0  0  0  0  0  0  0  0  0  0  0  0
   51.2606    2.1626   -1.5219 C   0  0  0  0  0  0  0  0  0  0  0  0
   50.6881    1.3520   -1.9735 H   0  0  0  0  0  0  0  0  0  0  0  0
   50.6031    3.0096   -1.3233 H   0  0  0  0  0  0  0  0  0  0  0  0
   51.7404    1.8123   -0.6081 H   0  0  0  0  0  0  0  0  0  0  0  0
   52.5245    1.9269   -3.6863 C   0  0  0  0  0  0  0  0  0  0  0  0
   51.9120    1.0947   -3.9213 H   0  0  0  0  0  0  0  0  0  0  0  0
  1  2  1  0  0  0  0
  1  5  1  0  0  0  0
  2  3  2  0  0  0  0
  2  6  1  0  0  0  0
  3  4  1  0  0  0  0
  3 20  1  0  0  0  0
  4  5  2  0  0  0  0
  4 19  1  0  0  0  0
  5  9  1  0  0  0  0
  6  7  2  0  0  0  0
  6  8  1  0  0  0  0
  9 10  1  0  0  0  0
  9 17  2  0  0  0  0
 10 11  1  0  0  0  0
 10 12  2  0  0  0  0
 12 13  1  0  0  0  0
 12 27  1  0  0  0  0
 13 14  1  0  0  0  0
 13 15  2  0  0  0  0
 15 16  1  0  0  0  0
 15 17  1  0  0  0  0
 17 18  1  0  0  0  0
 20 21  1  0  0  0  0
 21 22  1  0  0  0  0
 21 23  1  0  0  0  0
 21 24  1  0  0  0  0
 24 25  2  0  0  0  0
 24 26  1  0  0  0  0
 27 28  1  0  0  0  0
 27 29  1  0  0  0  0
 29 30  1  0  0  0  0
 29 31  1  0  0  0  0
 29 39  1  0  0  0  0
 32 33  1  0  0  0  0
 32 44  1  0  0  0  0
 32 47  1  0  0  0  0
 33 34  1  0  0  0  0
 33 35  1  0  0  0  0
 33 36  1  0  0  0  0
 36 37  1  0  0  0  0
 36 38  1  0  0  0  0
 36 39  1  0  0  0  0
 39 40  1  0  0  0  0
 39 41  1  0  0  0  0
 41 42  1  0  0  0  0
 41 43  1  0  0  0  0
 41 44  1  0  0  0  0
 44 45  1  0  0  0  0
 44 46  1  0  0  0  0
 47 48  2  0  0  0  0
 47 49  1  0  0  0  0
 49 50  1  0  0  0  0
 49 57  1  0  0  0  0
 51 52  1  0  0  0  0
 51 53  1  0  0  0  0
 51 63  2  0  0  0  0
 53 54  1  0  0  0  0
 53 55  2  0  0  0  0
 55 56  1  0  0  0  0
 55 57  1  0  0  0  0
 57 58  2  0  0  0  0
 58 59  1  0  0  0  0
 58 63  1  0  0  0  0
 59 60  1  0  0  0  0
 59 61  1  0  0  0  0
 59 62  1  0  0  0  0
 63 64  1  0  0  0  0
M  CHG  1   8  -1
M  CHG  1  26  -1
M  END
$$$$
ptp1b_wilson_54
  MOE2024           3D
ptp1b_wilson_54
 67 70  0  0  0  0  0  0  0  0999 V2000
   44.6510   14.0740    0.6210 S   0  0  0  0  0  0  0  0  0  0  0  0
   44.7900   15.4820    1.5710 C   0  0  0  0  0  0  0  0  0  0  0  0
   45.6940   15.2460    2.6400 C   0  0  0  0  0  0  0  0  0  0  0  0
   46.2290   13.9270    2.6200 C   0  0  0  0  0  0  0  0  0  0  0  0
   45.7340   13.1350    1.5470 C   0  0  0  0  0  0  0  0  0  0  0  0
   44.0570   16.6430    1.2480 C   0  0  0  0  0  0  0  0  0  0  0  0
   43.4980   16.6800    0.1500 O   0  0  0  0  0  0  0  0  0  0  0  0
   43.9810   17.5810    2.0360 O   0  5  0  0  0  0  0  0  0  0  0  0
   46.0160   11.7110    1.1830 C   0  0  0  0  0  0  0  0  0  0  0  0
   47.2610   11.0370    1.4450 C   0  0  0  0  0  0  0  0  0  0  0  0
   48.0773   11.5626    1.9181 H   0  0  0  0  0  0  0  0  0  0  0  0
   47.4050    9.6640    1.0720 C   0  0  0  0  0  0  0  0  0  0  0  0
   46.3290    8.9560    0.4400 C   0  0  0  0  0  0  0  0  0  0  0  0
   46.4561    7.9192    0.1655 H   0  0  0  0  0  0  0  0  0  0  0  0
   45.0950    9.6130    0.1730 C   0  0  0  0  0  0  0  0  0  0  0  0
   44.2837    9.0851   -0.3060 H   0  0  0  0  0  0  0  0  0  0  0  0
   44.9490   10.9800    0.5490 C   0  0  0  0  0  0  0  0  0  0  0  0
   44.0127   11.4815    0.3532 H   0  0  0  0  0  0  0  0  0  0  0  0
   47.4770   13.3320    3.9450 Br  0  0  0  0  0  0  0  0  0  0  0  0
   46.0630   16.1740    3.6490 O   0  0  0  0  0  0  0  0  0  0  0  0
   47.2490   16.9320    3.4120 C   0  0  0  0  0  0  0  0  0  0  0  0
   47.0569   17.6950    2.6577 H   0  0  0  0  0  0  0  0  0  0  0  0
   48.0471   16.2740    3.0682 H   0  0  0  0  0  0  0  0  0  0  0  0
   47.6510   17.5920    4.7270 C   0  0  0  0  0  0  0  0  0  0  0  0
   46.8770   17.5250    5.6970 O   0  0  0  0  0  0  0  0  0  0  0  0
   48.7320   18.1660    4.7830 O   0  5  0  0  0  0  0  0  0  0  0  0
   48.6210    8.9650    1.3420 N   0  0  0  0  0  0  0  0  0  0  0  0
   49.3906    9.5529    1.0555 H   0  0  0  0  0  0  0  0  0  0  0  0
   48.8302    7.5864    0.8976 C   0  0  0  0  0  0  0  0  0  0  0  0
   48.7182    7.5019   -0.1857 H   0  0  0  0  0  0  0  0  0  0  0  0
   48.1170    6.9293    1.3997 H   0  0  0  0  0  0  0  0  0  0  0  0
   52.7409    6.0725    0.6354 N   0  0  0  0  0  0  0  0  0  0  0  0
   52.7212    7.5178    0.9088 C   0  0  0  0  0  0  0  0  0  0  0  0
   53.4650    8.0393    0.3188 H   0  0  0  0  0  0  0  0  0  0  0  0
   52.8559    7.6964    1.9679 H   0  0  0  0  0  0  0  0  0  0  0  0
   51.3164    7.9856    0.4808 C   0  0  0  0  0  0  0  0  0  0  0  0
   51.1802    7.7995   -0.5864 H   0  0  0  0  0  0  0  0  0  0  0  0
   51.2367    9.0558    0.6686 H   0  0  0  0  0  0  0  0  0  0  0  0
   50.2631    7.2047    1.3085 C   0  0  0  0  0  0  0  0  0  0  0  0
   50.3902    7.4359    2.3689 H   0  0  0  0  0  0  0  0  0  0  0  0
   50.4332    5.6801    1.1055 C   0  0  0  0  0  0  0  0  0  0  0  0
   50.2694    5.4167    0.0592 H   0  0  0  0  0  0  0  0  0  0  0  0
   49.7205    5.1396    1.7300 H   0  0  0  0  0  0  0  0  0  0  0  0
   51.8644    5.2949    1.5264 C   0  0  0  0  0  0  0  0  0  0  0  0
   52.0081    4.2298    1.4108 H   0  0  0  0  0  0  0  0  0  0  0  0
   52.0281    5.6003    2.5528 H   0  0  0  0  0  0  0  0  0  0  0  0
   53.2434    5.6307   -0.5756 C   0  0  0  0  0  0  0  0  0  0  0  0
   53.8299    6.3794   -1.3494 O   0  0  0  0  0  0  0  0  0  0  0  0
   53.0278    4.3137   -0.8685 N   0  0  0  0  0  0  0  0  0  0  0  0
   52.4254    3.8088   -0.2221 H   0  0  0  0  0  0  0  0  0  0  0  0
   53.8888    2.4645   -4.5215 C   0  0  0  0  0  0  0  0  0  0  0  0
   54.1002    1.9913   -5.4458 H   0  0  0  0  0  0  0  0  0  0  0  0
   54.9322    2.8336   -3.6772 C   0  0  0  0  0  0  0  0  0  0  0  0
   55.9313    2.6386   -3.9709 H   0  0  0  0  0  0  0  0  0  0  0  0
   54.6726    3.4543   -2.4582 C   0  0  0  0  0  0  0  0  0  0  0  0
   55.8358    3.8399   -1.5603 C   0  0  0  0  0  0  0  0  0  0  0  0
   56.7261    3.2921   -1.8670 H   0  0  0  0  0  0  0  0  0  0  0  0
   55.5878    3.5903   -0.5292 H   0  0  0  0  0  0  0  0  0  0  0  0
   56.0004    4.9124   -1.6662 H   0  0  0  0  0  0  0  0  0  0  0  0
   53.3372    3.7096   -2.1061 C   0  0  0  0  0  0  0  0  0  0  0  0
   52.2770    3.3454   -2.9500 C   0  0  0  0  0  0  0  0  0  0  0  0
   50.8322    3.6349   -2.5838 C   0  0  0  0  0  0  0  0  0  0  0  0
   50.1797    3.3158   -3.3964 H   0  0  0  0  0  0  0  0  0  0  0  0
   50.7336    4.7103   -2.4318 H   0  0  0  0  0  0  0  0  0  0  0  0
   50.5907    3.0875   -1.6735 H   0  0  0  0  0  0  0  0  0  0  0  0
   52.5695    2.7187   -4.1584 C   0  0  0  0  0  0  0  0  0  0  0  0
   51.7877    2.4348   -4.8148 H   0  0  0  0  0  0  0  0  0  0  0  0
  1  2  1  0  0  0  0
  1  5  1  0  0  0  0
  2  3  2  0  0  0  0
  2  6  1  0  0  0  0
  3  4  1  0  0  0  0
  3 20  1  0  0  0  0
  4  5  2  0  0  0  0
  4 19  1  0  0  0  0
  5  9  1  0  0  0  0
  6  7  2  0  0  0  0
  6  8  1  0  0  0  0
  9 10  1  0  0  0  0
  9 17  2  0  0  0  0
 10 11  1  0  0  0  0
 10 12  2  0  0  0  0
 12 13  1  0  0  0  0
 12 27  1  0  0  0  0
 13 14  1  0  0  0  0
 13 15  2  0  0  0  0
 15 16  1  0  0  0  0
 15 17  1  0  0  0  0
 17 18  1  0  0  0  0
 20 21  1  0  0  0  0
 21 22  1  0  0  0  0
 21 23  1  0  0  0  0
 21 24  1  0  0  0  0
 24 25  2  0  0  0  0
 24 26  1  0  0  0  0
 27 28  1  0  0  0  0
 27 29  1  0  0  0  0
 29 30  1  0  0  0  0
 29 31  1  0  0  0  0
 29 39  1  0  0  0  0
 32 33  1  0  0  0  0
 32 44  1  0  0  0  0
 32 47  1  0  0  0  0
 33 34  1  0  0  0  0
 33 35  1  0  0  0  0
 33 36  1  0  0  0  0
 36 37  1  0  0  0  0
 36 38  1  0  0  0  0
 36 39  1  0  0  0  0
 39 40  1  0  0  0  0
 39 41  1  0  0  0  0
 41 42  1  0  0  0  0
 41 43  1  0  0  0  0
 41 44  1  0  0  0  0
 44 45  1  0  0  0  0
 44 46  1  0  0  0  0
 47 48  2  0  0  0  0
 47 49  1  0  0  0  0
 49 50  1  0  0  0  0
 49 60  1  0  0  0  0
 51 52  1  0  0  0  0
 51 53  1  0  0  0  0
 51 66  2  0  0  0  0
 53 54  1  0  0  0  0
 53 55  2  0  0  0  0
 55 56  1  0  0  0  0
 55 60  1  0  0  0  0
 56 57  1  0  0  0  0
 56 58  1  0  0  0  0
 56 59  1  0  0  0  0
 60 61  2  0  0  0  0
 61 62  1  0  0  0  0
 61 66  1  0  0  0  0
 62 63  1  0  0  0  0
 62 64  1  0  0  0  0
 62 65  1  0  0  0  0
 66 67  1  0  0  0  0
M  CHG  1   8  -1
M  CHG  1  26  -1
M  END
$$$$
