ptp1b_wilson_01_387
     RDKit          3D

 22 23  0  0  0  0  0  0  0  0999 V2000
   44.2222   15.5280    0.5098 S   0  0  0  0  0  0  0  0  0  0  0  0
   45.5999   15.8182    1.5244 C   0  0  0  0  0  0  0  0  0  0  0  0
   46.2995   14.6712    1.7706 C   0  0  0  0  0  0  0  0  0  0  0  0
   45.6691   13.4802    1.2261 C   0  0  0  0  0  0  0  0  0  0  0  0
   44.5245   13.8214    0.4858 C   0  0  0  0  0  0  0  0  0  0  0  0
   45.8930   17.2217    1.9024 C   0  0  0  0  0  0  0  0  0  0  0  0
   47.0593   17.6673    1.7242 O   0  0  0  0  0  0  0  0  0  0  0  0
   44.9166   17.8632    2.3883 O   0  0  0  0  0  0  0  0  0  0  0  0
   47.3295   14.3835    2.5769 O   0  0  0  0  0  0  0  0  0  0  0  0
   47.2509   14.9833    3.8813 C   0  0  0  0  0  0  0  0  0  0  0  0
   46.8750   16.0285    3.8052 H   0  0  0  0  0  0  0  0  0  0  0  0
   48.2527   14.9919    4.3695 H   0  0  0  0  0  0  0  0  0  0  0  0
   46.2936   14.1927    4.7893 C   0  0  0  0  0  0  0  0  0  0  0  0
   45.8450   13.1037    4.3426 O   0  0  0  0  0  0  0  0  0  0  0  0
   46.0461   14.7125    5.9109 O   0  0  0  0  0  0  0  0  0  0  0  0
   43.7285   12.9241   -0.1907 N   0  0  0  0  0  0  0  0  0  0  0  0
   44.0815   11.6467   -0.1093 C   0  0  0  0  0  0  0  0  0  0  0  0
   43.4631   10.9316   -0.6384 H   0  0  0  0  0  0  0  0  0  0  0  0
   45.1885   11.1903    0.6211 C   0  0  0  0  0  0  0  0  0  0  0  0
   45.4244   10.1379    0.6562 H   0  0  0  0  0  0  0  0  0  0  0  0
   45.9837   12.1249    1.2978 C   0  0  0  0  0  0  0  0  0  0  0  0
   46.8460   11.7970    1.8614 H   0  0  0  0  0  0  0  0  0  0  0  0
  1  2  1  0
  1  5  1  0
  2  3  2  0
  2  6  1  0
  3  4  1  0
  3  9  1  0
  4  5  2  0
  4 21  1  0
  5 16  1  0
  6  7  2  0
  6  8  1  0
  9 10  1  0
 10 11  1  0
 10 12  1  0
 10 13  1  0
 13 14  2  0
 13 15  1  0
 16 17  2  0
 17 18  1  0
 17 19  1  0
 19 20  1  0
 19 21  2  0
 21 22  1  0
M  CHG  2   8  -1  15  -1
M  END
> <intraLJ>
13.350    

> <intraEL>
11.266    

> <intraDihe>
11.636    

> <interLJ>
0.000     

> <interEJ>
0.000     

> <gridLJ>
-3.714    

> <gridEL>
0.000     

> <totalE>
32.538    

> <LGFE>
-3.714  

> <LE>
-0.218  

> <SMILES>
O=C([O-])COc1c(C(=O)[O-])sc2ncccc12

> <atom.dprop.GFE>
0.2801 0.7436 0.6670 0.1775 -0.0333 -2.6910 0.0000 0.0000 0.1670 1.3443 0.0000 0.0000 -3.0450 0.0000 0.0000 -0.5720 -0.2604 0.0000 -0.2670 0.0000 -0.2251 0.0000

> <atom.prop.CLASS>
PRPC GEHC GEHC GEHC GEHC ACEC NCLA NCLA DMEO PRPC NCLA NCLA ACEC NCLA NCLA IMIN GEHC NCLA BENC NCLA BENC NCLA

> <cluster_id>
1

> <rmsd_to_cluster_rep>
0.00    

> <ligRMSD>
2.90    

> <ligCOMD>
1.31    

$$$$
ptp1b_wilson_02_811
     RDKit          3D

 26 28  0  0  0  0  0  0  0  0999 V2000
   44.6862   12.2734    3.3405 S   0  0  0  0  0  0  0  0  0  0  0  0
   45.2916   13.8827    3.7547 C   0  0  0  0  0  0  0  0  0  0  0  0
   45.8091   14.5651    2.6439 C   0  0  0  0  0  0  0  0  0  0  0  0
   45.7122   13.7300    1.5499 C   0  0  0  0  0  0  0  0  0  0  0  0
   45.1754   12.5495    1.7375 C   0  0  0  0  0  0  0  0  0  0  0  0
   45.1186   14.2812    5.1991 C   0  0  0  0  0  0  0  0  0  0  0  0
   44.2237   13.7180    5.8900 O   0  0  0  0  0  0  0  0  0  0  0  0
   45.9084   15.1767    5.6140 O   0  0  0  0  0  0  0  0  0  0  0  0
   46.3789   15.7719    2.7070 O   0  0  0  0  0  0  0  0  0  0  0  0
   46.0111   16.6785    1.6577 C   0  0  0  0  0  0  0  0  0  0  0  0
   44.9724   16.4599    1.3235 H   0  0  0  0  0  0  0  0  0  0  0  0
   46.6986   16.5958    0.7842 H   0  0  0  0  0  0  0  0  0  0  0  0
   46.0640   18.1293    2.1604 C   0  0  0  0  0  0  0  0  0  0  0  0
   46.4371   18.3164    3.3493 O   0  0  0  0  0  0  0  0  0  0  0  0
   45.7280   19.0093    1.3229 O   0  0  0  0  0  0  0  0  0  0  0  0
   45.0811   11.6816    0.5938 C   0  0  0  0  0  0  0  0  0  0  0  0
   45.6447   12.4001   -0.5020 C   0  0  0  0  0  0  0  0  0  0  0  0
   46.2296   14.0212   -0.0693 S   0  0  0  0  0  0  0  0  0  0  0  0
   45.6977   11.8186   -1.7653 C   0  0  0  0  0  0  0  0  0  0  0  0
   46.1224   12.3580   -2.5991 H   0  0  0  0  0  0  0  0  0  0  0  0
   45.1938   10.5239   -1.9478 C   0  0  0  0  0  0  0  0  0  0  0  0
   45.2304   10.0641   -2.9250 H   0  0  0  0  0  0  0  0  0  0  0  0
   44.6425    9.8209   -0.8692 C   0  0  0  0  0  0  0  0  0  0  0  0
   44.2573    8.8227   -1.0210 H   0  0  0  0  0  0  0  0  0  0  0  0
   44.5862   10.4011    0.4049 C   0  0  0  0  0  0  0  0  0  0  0  0
   44.1601    9.8551    1.2334 H   0  0  0  0  0  0  0  0  0  0  0  0
  1  2  1  0
  1  5  1  0
  2  3  2  0
  2  6  1  0
  3  4  1  0
  3  9  1  0
  4  5  2  0
  4 18  1  0
  5 16  1  0
  6  7  2  0
  6  8  1  0
  9 10  1  0
 10 11  1  0
 10 12  1  0
 10 13  1  0
 13 14  2  0
 13 15  1  0
 16 17  2  0
 16 25  1  0
 17 18  1  0
 17 19  1  0
 19 20  1  0
 19 21  2  0
 21 22  1  0
 21 23  1  0
 23 24  1  0
 23 25  2  0
 25 26  1  0
M  CHG  2   8  -1  15  -1
M  END
> <intraLJ>
10.863    

> <intraEL>
11.940    

> <intraDihe>
10.198    

> <interLJ>
0.000     

> <interEJ>
0.000     

> <gridLJ>
-2.778    

> <gridEL>
0.000     

> <totalE>
30.223    

> <LGFE>
-2.778  

> <LE>
-0.139  

> <SMILES>
O=C([O-])COc1c(C(=O)[O-])sc2c1sc1ccccc12

> <atom.dprop.GFE>
0.7443 0.5688 0.6670 0.1775 -0.0699 -3.2450 0.0000 0.0000 1.5870 0.8715 0.0000 0.0000 -2.6910 0.0000 0.0000 -0.2474 -0.0276 -0.2877 -0.1779 0.0000 -0.1583 0.0000 -0.2268 0.0000 -0.2627 0.0000

> <atom.prop.CLASS>
PRPC GEHC GEHC GEHC GEHC ACEC NCLA NCLA DMEO PRPC NCLA NCLA ACEC NCLA NCLA GEHC GEHC PRPC BENC NCLA BENC NCLA BENC NCLA BENC NCLA

> <cluster_id>
1

> <rmsd_to_cluster_rep>
0.00    

> <ligRMSD>
3.47    

> <ligCOMD>
1.46    

$$$$
ptp1b_wilson_03_592
     RDKit          3D

 27 28  0  0  0  0  0  0  0  0999 V2000
   45.4566   14.8083   -0.0974 S   0  0  0  0  0  0  0  0  0  0  0  0
   45.0427   15.1333    1.5457 C   0  0  0  0  0  0  0  0  0  0  0  0
   45.5375   14.1577    2.3754 C   0  0  0  0  0  0  0  0  0  0  0  0
   46.1924   13.1588    1.6618 C   0  0  0  0  0  0  0  0  0  0  0  0
   46.2774   13.3359    0.2934 C   0  0  0  0  0  0  0  0  0  0  0  0
   44.2947   16.4134    1.7939 C   0  0  0  0  0  0  0  0  0  0  0  0
   44.7922   17.5038    1.3951 O   0  0  0  0  0  0  0  0  0  0  0  0
   43.1947   16.2876    2.4034 O   0  0  0  0  0  0  0  0  0  0  0  0
   46.7691   12.5233   -0.8442 C   0  0  0  0  0  0  0  0  0  0  0  0
   48.0343   11.8846   -0.7815 C   0  0  0  0  0  0  0  0  0  0  0  0
   48.6626   11.9945    0.0892 H   0  0  0  0  0  0  0  0  0  0  0  0
   48.5098   11.0970   -1.8421 C   0  0  0  0  0  0  0  0  0  0  0  0
   49.4724   10.6129   -1.7656 H   0  0  0  0  0  0  0  0  0  0  0  0
   47.7479   10.9524   -3.0052 C   0  0  0  0  0  0  0  0  0  0  0  0
   48.1180   10.3563   -3.8267 H   0  0  0  0  0  0  0  0  0  0  0  0
   46.5058   11.5836   -3.1018 C   0  0  0  0  0  0  0  0  0  0  0  0
   45.9128   11.4743   -3.9982 H   0  0  0  0  0  0  0  0  0  0  0  0
   46.0175   12.3420   -2.0317 C   0  0  0  0  0  0  0  0  0  0  0  0
   45.0432   12.7952   -2.1416 H   0  0  0  0  0  0  0  0  0  0  0  0
   46.9150   11.6434    2.5785 Br  0  0  0  0  0  0  0  0  0  0  0  0
   45.3164   14.1429    3.7024 O   0  0  0  0  0  0  0  0  0  0  0  0
   45.5608   15.3778    4.4021 C   0  0  0  0  0  0  0  0  0  0  0  0
   44.5896   15.8772    4.6150 H   0  0  0  0  0  0  0  0  0  0  0  0
   46.1944   16.0683    3.7998 H   0  0  0  0  0  0  0  0  0  0  0  0
   46.2794   15.1369    5.7448 C   0  0  0  0  0  0  0  0  0  0  0  0
   46.5786   13.9485    6.0351 O   0  0  0  0  0  0  0  0  0  0  0  0
   46.5068   16.1660    6.4378 O   0  0  0  0  0  0  0  0  0  0  0  0
  1  2  1  0
  1  5  1  0
  2  3  2  0
  2  6  1  0
  3  4  1  0
  3 21  1  0
  4  5  2  0
  4 20  1  0
  5  9  1  0
  6  7  2  0
  6  8  1  0
  9 10  2  0
  9 18  1  0
 10 11  1  0
 10 12  1  0
 12 13  1  0
 12 14  2  0
 14 15  1  0
 14 16  1  0
 16 17  1  0
 16 18  2  0
 18 19  1  0
 21 22  1  0
 22 23  1  0
 22 24  1  0
 22 25  1  0
 25 26  2  0
 25 27  1  0
M  CHG  2   8  -1  27  -1
M  END
> <intraLJ>
12.718    

> <intraEL>
10.223    

> <intraDihe>
14.683    

> <interLJ>
0.000     

> <interEJ>
0.000     

> <gridLJ>
-2.629    

> <gridEL>
0.000     

> <totalE>
34.995    

> <LGFE>
-2.629  

> <LE>
-0.131  

> <SMILES>
O=C([O-])COc1c(C(=O)[O-])sc(-c2ccccc2)c1Br

> <atom.dprop.GFE>
-0.0553 0.4339 0.3303 -0.0080 0.0413 -2.0930 0.0000 0.0000 -0.1261 -0.0728 0.0000 -0.0028 0.0000 0.0212 0.0000 -0.0483 0.0000 -0.1423 0.0000 0.3740 0.4190 1.3443 0.0000 0.0000 -3.0450 0.0000 0.0000

> <atom.prop.CLASS>
PRPC GEHC GEHC GEHC GEHC ACEC NCLA NCLA BENC BENC NCLA BENC NCLA BENC NCLA BENC NCLA BENC NCLA BRBX DMEO PRPC NCLA NCLA ACEC NCLA NCLA

> <cluster_id>
1

> <rmsd_to_cluster_rep>
0.00    

> <ligRMSD>
2.55    

> <ligCOMD>
1.02    

$$$$
ptp1b_wilson_08_982
     RDKit          3D

 29 30  0  0  0  0  0  0  0  0999 V2000
   45.3661   14.6807   -0.0867 S   0  0  0  0  0  0  0  0  0  0  0  0
   44.9551   15.0179    1.5610 C   0  0  0  0  0  0  0  0  0  0  0  0
   45.5124   14.0958    2.4135 C   0  0  0  0  0  0  0  0  0  0  0  0
   46.2071   13.1227    1.7164 C   0  0  0  0  0  0  0  0  0  0  0  0
   46.2381   13.2604    0.3476 C   0  0  0  0  0  0  0  0  0  0  0  0
   44.1390   16.2500    1.7944 C   0  0  0  0  0  0  0  0  0  0  0  0
   44.5760   17.3602    1.3822 O   0  0  0  0  0  0  0  0  0  0  0  0
   43.0469   16.0702    2.4045 O   0  0  0  0  0  0  0  0  0  0  0  0
   46.8802   12.5136   -0.7330 C   0  0  0  0  0  0  0  0  0  0  0  0
   48.2258   12.1129   -0.5919 C   0  0  0  0  0  0  0  0  0  0  0  0
   48.7835   12.4014    0.2891 H   0  0  0  0  0  0  0  0  0  0  0  0
   48.8578   11.3462   -1.5823 C   0  0  0  0  0  0  0  0  0  0  0  0
   48.1470   10.9709   -2.7304 C   0  0  0  0  0  0  0  0  0  0  0  0
   48.6211   10.3815   -3.5024 H   0  0  0  0  0  0  0  0  0  0  0  0
   46.8111   11.3575   -2.8849 C   0  0  0  0  0  0  0  0  0  0  0  0
   46.2637   11.0644   -3.7687 H   0  0  0  0  0  0  0  0  0  0  0  0
   46.1808   12.1200   -1.8933 C   0  0  0  0  0  0  0  0  0  0  0  0
   45.1449   12.3980   -2.0266 H   0  0  0  0  0  0  0  0  0  0  0  0
   47.0003   11.6180    2.5836 Br  0  0  0  0  0  0  0  0  0  0  0  0
   45.3087   14.0788    3.7431 O   0  0  0  0  0  0  0  0  0  0  0  0
   45.4755   15.3331    4.4312 C   0  0  0  0  0  0  0  0  0  0  0  0
   44.4757   15.7538    4.6786 H   0  0  0  0  0  0  0  0  0  0  0  0
   46.0317   16.0684    3.8061 H   0  0  0  0  0  0  0  0  0  0  0  0
   46.2585   15.1473    5.7468 C   0  0  0  0  0  0  0  0  0  0  0  0
   46.6549   13.9840    6.0212 O   0  0  0  0  0  0  0  0  0  0  0  0
   46.4369   16.1873    6.4370 O   0  0  0  0  0  0  0  0  0  0  0  0
   50.1820   10.9517   -1.4193 N   0  0  0  0  0  0  0  0  0  0  0  0
   50.4611   10.9791   -0.4599 H   0  0  0  0  0  0  0  0  0  0  0  0
   50.4064   10.1598   -1.9861 H   0  0  0  0  0  0  0  0  0  0  0  0
  1  2  1  0
  1  5  1  0
  2  3  2  0
  2  6  1  0
  3  4  1  0
  3 20  1  0
  4  5  2  0
  4 19  1  0
  5  9  1  0
  6  7  2  0
  6  8  1  0
  9 10  2  0
  9 17  1  0
 10 11  1  0
 10 12  1  0
 12 13  2  0
 12 27  1  0
 13 14  1  0
 13 15  1  0
 15 16  1  0
 15 17  2  0
 17 18  1  0
 20 21  1  0
 21 22  1  0
 21 23  1  0
 21 24  1  0
 24 25  2  0
 24 26  1  0
 27 28  1  0
 27 29  1  0
M  CHG  2   8  -1  26  -1
M  END
> <intraLJ>
12.817    

> <intraEL>
8.119     

> <intraDihe>
16.576    

> <interLJ>
0.000     

> <interEJ>
0.000     

> <gridLJ>
-2.849    

> <gridEL>
0.000     

> <totalE>
34.663    

> <LGFE>
-2.849  

> <LE>
-0.136  

> <SMILES>
Nc1cccc(-c2sc(C(=O)[O-])c(OCC(=O)[O-])c2Br)c1

> <atom.dprop.GFE>
-0.0553 0.4339 0.3303 -0.0080 0.0413 -2.0930 0.0000 0.0000 -0.1261 -0.0728 0.0000 -0.0389 0.0212 0.0000 -0.0483 0.0000 -0.1779 0.0000 0.3740 0.4190 1.3443 0.0000 0.0000 -3.0450 0.0000 0.0000 -0.1480 0.0000 0.0000

> <atom.prop.CLASS>
PRPC GEHC GEHC GEHC GEHC ACEC NCLA NCLA BENC BENC NCLA BENC BENC NCLA BENC NCLA BENC NCLA BRBX DMEO PRPC NCLA NCLA ACEC NCLA NCLA FORN NCLA NCLA

> <cluster_id>
1

> <rmsd_to_cluster_rep>
0.00    

> <ligRMSD>
2.50    

> <ligCOMD>
1.01    

$$$$
ptp1b_wilson_09_789
     RDKit          3D

 28 29  0  0  0  0  0  0  0  0999 V2000
   45.4754   14.7192   -0.0908 S   0  0  0  0  0  0  0  0  0  0  0  0
   45.0410   15.0707    1.5474 C   0  0  0  0  0  0  0  0  0  0  0  0
   45.5421   14.1260    2.4098 C   0  0  0  0  0  0  0  0  0  0  0  0
   46.2126   13.1264    1.7269 C   0  0  0  0  0  0  0  0  0  0  0  0
   46.2743   13.2620    0.3594 C   0  0  0  0  0  0  0  0  0  0  0  0
   44.2721   16.3360    1.7654 C   0  0  0  0  0  0  0  0  0  0  0  0
   44.7424   17.4214    1.3245 O   0  0  0  0  0  0  0  0  0  0  0  0
   43.1827   16.2071    2.3931 O   0  0  0  0  0  0  0  0  0  0  0  0
   46.8909   12.4858   -0.7140 C   0  0  0  0  0  0  0  0  0  0  0  0
   48.2109   12.0142   -0.5585 C   0  0  0  0  0  0  0  0  0  0  0  0
   48.7779   12.2678    0.3267 H   0  0  0  0  0  0  0  0  0  0  0  0
   48.8046   11.2219   -1.5501 C   0  0  0  0  0  0  0  0  0  0  0  0
   50.1261   10.7638   -1.3891 O   0  0  0  0  0  0  0  0  0  0  0  0
   50.4480   11.0883   -0.5453 H   0  0  0  0  0  0  0  0  0  0  0  0
   48.0924   10.8793   -2.7038 C   0  0  0  0  0  0  0  0  0  0  0  0
   48.5502   10.2663   -3.4669 H   0  0  0  0  0  0  0  0  0  0  0  0
   46.7806   11.3337   -2.8695 C   0  0  0  0  0  0  0  0  0  0  0  0
   46.2264   11.0692   -3.7581 H   0  0  0  0  0  0  0  0  0  0  0  0
   46.1838   12.1309   -1.8835 C   0  0  0  0  0  0  0  0  0  0  0  0
   45.1655   12.4630   -2.0267 H   0  0  0  0  0  0  0  0  0  0  0  0
   46.9229   11.5873    2.6042 Br  0  0  0  0  0  0  0  0  0  0  0  0
   45.3049   14.1142    3.7334 O   0  0  0  0  0  0  0  0  0  0  0  0
   45.5073   15.3594    4.4277 C   0  0  0  0  0  0  0  0  0  0  0  0
   44.5197   15.8114    4.6691 H   0  0  0  0  0  0  0  0  0  0  0  0
   46.0916   16.0789    3.8097 H   0  0  0  0  0  0  0  0  0  0  0  0
   46.2736   15.1452    5.7485 C   0  0  0  0  0  0  0  0  0  0  0  0
   46.6313   13.9693    6.0225 O   0  0  0  0  0  0  0  0  0  0  0  0
   46.4785   16.1779    6.4426 O   0  0  0  0  0  0  0  0  0  0  0  0
  1  2  1  0
  1  5  1  0
  2  3  2  0
  2  6  1  0
  3  4  1  0
  3 22  1  0
  4  5  2  0
  4 21  1  0
  5  9  1  0
  6  7  2  0
  6  8  1  0
  9 10  2  0
  9 19  1  0
 10 11  1  0
 10 12  1  0
 12 13  1  0
 12 15  2  0
 13 14  1  0
 15 16  1  0
 15 17  1  0
 17 18  1  0
 17 19  2  0
 19 20  1  0
 22 23  1  0
 23 24  1  0
 23 25  1  0
 23 26  1  0
 26 27  2  0
 26 28  1  0
M  CHG  2   8  -1  28  -1
M  END
> <intraLJ>
13.022    

> <intraEL>
8.463     

> <intraDihe>
15.013    

> <interLJ>
0.000     

> <interEJ>
0.000     

> <gridLJ>
-2.905    

> <gridEL>
0.000     

> <totalE>
33.592    

> <LGFE>
-2.905  

> <LE>
-0.138  

> <SMILES>
O=C([O-])COc1c(C(=O)[O-])sc(-c2cccc(O)c2)c1Br

> <atom.dprop.GFE>
-0.0553 0.4339 0.3303 -0.0080 0.0413 -2.0930 0.0000 0.0000 -0.1261 -0.0728 0.0000 -0.0389 -0.2040 0.0000 0.0212 0.0000 -0.0483 0.0000 -0.1779 0.0000 0.3740 0.4190 1.3443 0.0000 0.0000 -3.0450 0.0000 0.0000

> <atom.prop.CLASS>
PRPC GEHC GEHC GEHC GEHC ACEC NCLA NCLA BENC BENC NCLA BENC MEOO NCLA BENC NCLA BENC NCLA BENC NCLA BRBX DMEO PRPC NCLA NCLA ACEC NCLA NCLA

> <cluster_id>
1

> <rmsd_to_cluster_rep>
0.00    

> <ligRMSD>
2.49    

> <ligCOMD>
0.94    

$$$$
ptp1b_wilson_10_1245
     RDKit          3D

 31 32  0  0  0  0  0  0  0  0999 V2000
   45.3364   14.7297   -0.0889 S   0  0  0  0  0  0  0  0  0  0  0  0
   44.9646   15.0617    1.5676 C   0  0  0  0  0  0  0  0  0  0  0  0
   45.5219   14.1218    2.3997 C   0  0  0  0  0  0  0  0  0  0  0  0
   46.1833   13.1406    1.6819 C   0  0  0  0  0  0  0  0  0  0  0  0
   46.1864   13.2875    0.3145 C   0  0  0  0  0  0  0  0  0  0  0  0
   44.1810   16.3110    1.8281 C   0  0  0  0  0  0  0  0  0  0  0  0
   43.0353   16.2177    2.3505 O   0  0  0  0  0  0  0  0  0  0  0  0
   44.7512   17.3876    1.4912 O   0  0  0  0  0  0  0  0  0  0  0  0
   46.7757   12.5340   -0.7918 C   0  0  0  0  0  0  0  0  0  0  0  0
   48.1218   12.1064   -0.7062 C   0  0  0  0  0  0  0  0  0  0  0  0
   48.7003   12.3910    0.1591 H   0  0  0  0  0  0  0  0  0  0  0  0
   48.6988   11.3311   -1.7381 C   0  0  0  0  0  0  0  0  0  0  0  0
   50.0350   10.8749   -1.7215 O   0  0  0  0  0  0  0  0  0  0  0  0
   50.8429   11.1629   -0.5859 C   0  0  0  0  0  0  0  0  0  0  0  0
   51.8468   10.7131   -0.7442 H   0  0  0  0  0  0  0  0  0  0  0  0
   50.4024   10.7207    0.3341 H   0  0  0  0  0  0  0  0  0  0  0  0
   50.9672   12.2601   -0.4585 H   0  0  0  0  0  0  0  0  0  0  0  0
   47.9178   10.9868   -2.8469 C   0  0  0  0  0  0  0  0  0  0  0  0
   48.3520   10.3936   -3.6392 H   0  0  0  0  0  0  0  0  0  0  0  0
   46.5870   11.3961   -2.9434 C   0  0  0  0  0  0  0  0  0  0  0  0
   45.9970   11.1181   -3.8048 H   0  0  0  0  0  0  0  0  0  0  0  0
   46.0179   12.1638   -1.9229 C   0  0  0  0  0  0  0  0  0  0  0  0
   44.9827   12.4625   -2.0102 H   0  0  0  0  0  0  0  0  0  0  0  0
   46.9562   11.6083    2.5160 Br  0  0  0  0  0  0  0  0  0  0  0  0
   45.3376   14.0954    3.7308 O   0  0  0  0  0  0  0  0  0  0  0  0
   45.5113   15.3479    4.4189 C   0  0  0  0  0  0  0  0  0  0  0  0
   44.5131   15.7833    4.6473 H   0  0  0  0  0  0  0  0  0  0  0  0
   46.0881   16.0744    3.8018 H   0  0  0  0  0  0  0  0  0  0  0  0
   46.2678   15.1596    5.7487 C   0  0  0  0  0  0  0  0  0  0  0  0
   46.6394   13.9923    6.0407 O   0  0  0  0  0  0  0  0  0  0  0  0
   46.4503   16.2047    6.4307 O   0  0  0  0  0  0  0  0  0  0  0  0
  1  2  1  0
  1  5  1  0
  2  3  2  0
  2  6  1  0
  3  4  1  0
  3 25  1  0
  4  5  2  0
  4 24  1  0
  5  9  1  0
  6  7  2  0
  6  8  1  0
  9 10  2  0
  9 22  1  0
 10 11  1  0
 10 12  1  0
 12 13  1  0
 12 18  2  0
 13 14  1  0
 14 15  1  0
 14 16  1  0
 14 17  1  0
 18 19  1  0
 18 20  1  0
 20 21  1  0
 20 22  2  0
 22 23  1  0
 25 26  1  0
 26 27  1  0
 26 28  1  0
 26 29  1  0
 29 30  2  0
 29 31  1  0
M  CHG  2   8  -1  31  -1
M  END
> <intraLJ>
13.863    

> <intraEL>
9.464     

> <intraDihe>
15.519    

> <interLJ>
0.000     

> <interEJ>
0.000     

> <gridLJ>
-3.003    

> <gridEL>
0.000     

> <totalE>
35.843    

> <LGFE>
-3.003  

> <LE>
-0.136  

> <SMILES>
COc1cccc(-c2sc(C(=O)[O-])c(OCC(=O)[O-])c2Br)c1

> <atom.dprop.GFE>
-0.0553 0.4339 0.3303 -0.0080 0.0413 -2.0930 0.0000 0.0000 -0.1261 -0.0728 0.0000 -0.0389 -0.4550 0.1532 0.0000 0.0000 0.0000 0.0212 0.0000 -0.0483 0.0000 -0.1779 0.0000 0.3740 0.4190 1.3443 0.0000 0.0000 -3.0450 0.0000 0.0000

> <atom.prop.CLASS>
PRPC GEHC GEHC GEHC GEHC ACEC NCLA NCLA BENC BENC NCLA BENC DMEO PRPC NCLA NCLA NCLA BENC NCLA BENC NCLA BENC NCLA BRBX DMEO PRPC NCLA NCLA ACEC NCLA NCLA

> <cluster_id>
1

> <rmsd_to_cluster_rep>
0.00    

> <ligRMSD>
2.50    

> <ligCOMD>
1.01    

$$$$
ptp1b_wilson_11_764
     RDKit          3D

 37 38  0  0  0  0  0  0  0  0999 V2000
   45.2241   13.0826   -0.5769 S   0  0  0  0  0  0  0  0  0  0  0  0
   44.6178   14.3340    0.4432 C   0  0  0  0  0  0  0  0  0  0  0  0
   45.0435   14.1618    1.7376 C   0  0  0  0  0  0  0  0  0  0  0  0
   45.8036   13.0067    1.8792 C   0  0  0  0  0  0  0  0  0  0  0  0
   46.0334   12.2851    0.7239 C   0  0  0  0  0  0  0  0  0  0  0  0
   43.8087   15.3980   -0.2404 C   0  0  0  0  0  0  0  0  0  0  0  0
   42.5800   15.5072    0.0316 O   0  0  0  0  0  0  0  0  0  0  0  0
   44.4467   16.1179   -1.0599 O   0  0  0  0  0  0  0  0  0  0  0  0
   46.6811   11.0014    0.3913 C   0  0  0  0  0  0  0  0  0  0  0  0
   47.9608   10.7004    0.9147 C   0  0  0  0  0  0  0  0  0  0  0  0
   48.4810   11.4098    1.5407 H   0  0  0  0  0  0  0  0  0  0  0  0
   48.5801    9.4695    0.6508 C   0  0  0  0  0  0  0  0  0  0  0  0
   47.9751    8.5476   -0.2069 C   0  0  0  0  0  0  0  0  0  0  0  0
   48.4679    7.6129   -0.4319 H   0  0  0  0  0  0  0  0  0  0  0  0
   46.7232    8.8279   -0.7540 C   0  0  0  0  0  0  0  0  0  0  0  0
   46.2455    8.1116   -1.4066 H   0  0  0  0  0  0  0  0  0  0  0  0
   46.0764   10.0282   -0.4422 C   0  0  0  0  0  0  0  0  0  0  0  0
   45.0978   10.1975   -0.8671 H   0  0  0  0  0  0  0  0  0  0  0  0
   46.4677   12.4929    3.5998 Br  0  0  0  0  0  0  0  0  0  0  0  0
   44.6746   14.9706    2.7465 O   0  0  0  0  0  0  0  0  0  0  0  0
   44.7602   16.3855    2.4922 C   0  0  0  0  0  0  0  0  0  0  0  0
   43.7669   16.7593    2.1580 H   0  0  0  0  0  0  0  0  0  0  0  0
   45.5130   16.6125    1.7031 H   0  0  0  0  0  0  0  0  0  0  0  0
   45.1631   17.1639    3.7604 C   0  0  0  0  0  0  0  0  0  0  0  0
   45.3974   16.4926    4.7999 O   0  0  0  0  0  0  0  0  0  0  0  0
   45.2244   18.4178    3.6391 O   0  0  0  0  0  0  0  0  0  0  0  0
   49.8583    9.1567    1.1685 N   0  0  0  0  0  0  0  0  0  0  0  0
   50.5548    9.0051    0.4734 H   0  0  0  0  0  0  0  0  0  0  0  0
   50.1972    9.0216    2.4711 C   0  0  0  0  0  0  0  0  0  0  0  0
   49.1537    9.1363    3.5530 C   0  0  0  0  0  0  0  0  0  0  0  0
   49.6712    9.2547    4.5315 H   0  0  0  0  0  0  0  0  0  0  0  0
   48.5109   10.0269    3.4073 H   0  0  0  0  0  0  0  0  0  0  0  0
   48.2996    7.8602    3.5901 C   0  0  0  0  0  0  0  0  0  0  0  0
   47.7419    7.7264    2.6385 H   0  0  0  0  0  0  0  0  0  0  0  0
   47.5605    7.9213    4.4173 H   0  0  0  0  0  0  0  0  0  0  0  0
   48.9340    6.9633    3.7594 H   0  0  0  0  0  0  0  0  0  0  0  0
   51.3626    8.7819    2.7705 O   0  0  0  0  0  0  0  0  0  0  0  0
  1  2  1  0
  1  5  1  0
  2  3  2  0
  2  6  1  0
  3  4  1  0
  3 20  1  0
  4  5  2  0
  4 19  1  0
  5  9  1  0
  6  7  2  0
  6  8  1  0
  9 10  2  0
  9 17  1  0
 10 11  1  0
 10 12  1  0
 12 13  2  0
 12 27  1  0
 13 14  1  0
 13 15  1  0
 15 16  1  0
 15 17  2  0
 17 18  1  0
 20 21  1  0
 21 22  1  0
 21 23  1  0
 21 24  1  0
 24 25  2  0
 24 26  1  0
 27 28  1  0
 27 29  1  0
 29 30  1  0
 29 37  2  0
 30 31  1  0
 30 32  1  0
 30 33  1  0
 33 34  1  0
 33 35  1  0
 33 36  1  0
M  CHG  2   8  -1  26  -1
M  END
> <intraLJ>
11.799    

> <intraEL>
5.909     

> <intraDihe>
23.932    

> <interLJ>
0.000     

> <interEJ>
0.000     

> <gridLJ>
-3.416    

> <gridEL>
0.000     

> <totalE>
38.223    

> <LGFE>
-3.416  

> <LE>
-0.137  

> <SMILES>
CCC(=O)Nc1cccc(-c2sc(C(=O)[O-])c(OCC(=O)[O-])c2Br)c1

> <atom.dprop.GFE>
-0.5335 0.1775 0.1032 0.1672 -0.0556 -0.6510 0.0000 0.0000 -0.2149 -0.0456 0.0000 -0.0237 -0.0972 0.0000 -0.0798 0.0000 -0.1890 0.0000 0.1600 0.9550 1.3443 0.0000 0.0000 -3.2880 0.0000 0.0000 -0.2060 0.0000 0.0000 -0.0616 0.0000 0.0000 -0.5375 0.0000 0.0000 0.0000 -0.3400

> <atom.prop.CLASS>
PRPC GEHC GEHC GEHC GEHC ACEC NCLA NCLA BENC BENC NCLA BENC BENC NCLA BENC NCLA BENC NCLA BRBX DMEO PRPC NCLA NCLA ACEC NCLA NCLA FORN NCLA NCLA PRPC NCLA NCLA PRPC NCLA NCLA NCLA FORO

> <cluster_id>
1

> <rmsd_to_cluster_rep>
0.00    

> <ligRMSD>
1.87    

> <ligCOMD>
0.86    

$$$$
ptp1b_wilson_12_984
     RDKit          3D

 41 43  0  0  0  0  0  0  0  0999 V2000
   44.3451   12.8214   -0.8020 S   0  0  0  0  0  0  0  0  0  0  0  0
   44.1255   14.4813   -0.3884 C   0  0  0  0  0  0  0  0  0  0  0  0
   44.8290   14.8011    0.7470 C   0  0  0  0  0  0  0  0  0  0  0  0
   45.4838   13.6941    1.2751 C   0  0  0  0  0  0  0  0  0  0  0  0
   45.3591   12.5162    0.5638 C   0  0  0  0  0  0  0  0  0  0  0  0
   43.2851   15.2850   -1.3384 C   0  0  0  0  0  0  0  0  0  0  0  0
   42.4751   14.6868   -2.1010 O   0  0  0  0  0  0  0  0  0  0  0  0
   43.4667   16.5349   -1.2948 O   0  0  0  0  0  0  0  0  0  0  0  0
   45.7828   11.1140    0.7589 C   0  0  0  0  0  0  0  0  0  0  0  0
   47.1159   10.8175    1.1362 C   0  0  0  0  0  0  0  0  0  0  0  0
   47.8316   11.6164    1.2556 H   0  0  0  0  0  0  0  0  0  0  0  0
   47.5424    9.4933    1.3443 C   0  0  0  0  0  0  0  0  0  0  0  0
   46.6492    8.4385    1.1295 C   0  0  0  0  0  0  0  0  0  0  0  0
   46.9750    7.4178    1.2687 H   0  0  0  0  0  0  0  0  0  0  0  0
   45.3344    8.7004    0.7450 C   0  0  0  0  0  0  0  0  0  0  0  0
   44.6449    7.8838    0.5865 H   0  0  0  0  0  0  0  0  0  0  0  0
   44.9033   10.0194    0.5781 C   0  0  0  0  0  0  0  0  0  0  0  0
   43.8727   10.1803    0.2967 H   0  0  0  0  0  0  0  0  0  0  0  0
   46.4851   13.8502    2.8988 Br  0  0  0  0  0  0  0  0  0  0  0  0
   44.7924   16.0198    1.3147 O   0  0  0  0  0  0  0  0  0  0  0  0
   46.0431   16.7311    1.3771 C   0  0  0  0  0  0  0  0  0  0  0  0
   46.0407   17.5451    0.6186 H   0  0  0  0  0  0  0  0  0  0  0  0
   46.9059   16.0557    1.1761 H   0  0  0  0  0  0  0  0  0  0  0  0
   46.2618   17.3689    2.7636 C   0  0  0  0  0  0  0  0  0  0  0  0
   45.3624   17.1947    3.6277 O   0  0  0  0  0  0  0  0  0  0  0  0
   47.3363   18.0134    2.9084 O   0  0  0  0  0  0  0  0  0  0  0  0
   48.8729    9.1368    1.6972 N   0  0  0  0  0  0  0  0  0  0  0  0
   49.5705    9.5296    1.1055 H   0  0  0  0  0  0  0  0  0  0  0  0
   49.2361    8.3014    2.6993 C   0  0  0  0  0  0  0  0  0  0  0  0
   48.4161    7.6956    3.3881 O   0  0  0  0  0  0  0  0  0  0  0  0
   53.4471    7.6868    3.3489 C   0  0  0  0  0  0  0  0  0  0  0  0
   54.5025    7.5216    3.5090 H   0  0  0  0  0  0  0  0  0  0  0  0
   52.5076    6.8320    3.9373 C   0  0  0  0  0  0  0  0  0  0  0  0
   52.8387    6.0066    4.5503 H   0  0  0  0  0  0  0  0  0  0  0  0
   51.1379    7.0465    3.7350 C   0  0  0  0  0  0  0  0  0  0  0  0
   50.4310    6.3703    4.1952 H   0  0  0  0  0  0  0  0  0  0  0  0
   50.6976    8.1121    2.9270 C   0  0  0  0  0  0  0  0  0  0  0  0
   51.6508    8.9719    2.3428 C   0  0  0  0  0  0  0  0  0  0  0  0
   51.3506    9.8117    1.7329 H   0  0  0  0  0  0  0  0  0  0  0  0
   53.0185    8.7590    2.5579 C   0  0  0  0  0  0  0  0  0  0  0  0
   53.7441    9.4217    2.1094 H   0  0  0  0  0  0  0  0  0  0  0  0
  1  2  1  0
  1  5  1  0
  2  3  2  0
  2  6  1  0
  3  4  1  0
  3 20  1  0
  4  5  2  0
  4 19  1  0
  5  9  1  0
  6  7  2  0
  6  8  1  0
  9 10  2  0
  9 17  1  0
 10 11  1  0
 10 12  1  0
 12 13  2  0
 12 27  1  0
 13 14  1  0
 13 15  1  0
 15 16  1  0
 15 17  2  0
 17 18  1  0
 20 21  1  0
 21 22  1  0
 21 23  1  0
 21 24  1  0
 24 25  2  0
 24 26  1  0
 27 28  1  0
 27 29  1  0
 29 30  2  0
 29 37  1  0
 31 32  1  0
 31 33  2  0
 31 40  1  0
 33 34  1  0
 33 35  1  0
 35 36  1  0
 35 37  2  0
 37 38  1  0
 38 39  1  0
 38 40  2  0
 40 41  1  0
M  CHG  2   8  -1  26  -1
M  END
> <intraLJ>
26.029    

> <intraEL>
8.403     

> <intraDihe>
20.271    

> <interLJ>
0.000     

> <interEJ>
0.000     

> <gridLJ>
-3.948    

> <gridEL>
0.000     

> <totalE>
50.756    

> <LGFE>
-3.948  

> <LE>
-0.136  

> <SMILES>
O=C([O-])COc1c(C(=O)[O-])sc(-c2cccc(NC(=O)c3ccccc3)c2)c1Br

> <atom.dprop.GFE>
-0.5335 0.0519 0.1775 0.1775 -0.0556 -1.2330 0.0000 0.0000 -0.2261 -0.1884 0.0000 -0.0805 -0.1353 0.0000 -0.1695 0.0000 -0.2513 0.0000 -0.4620 1.0610 0.8715 0.0000 0.0000 -2.7610 0.0000 0.0000 -0.2580 0.0000 0.0000 -0.4410 0.3091 0.0000 0.0426 0.0000 -0.0553 0.0000 0.0180 0.0606 0.0000 0.1331 0.0000

> <atom.prop.CLASS>
PRPC GEHC GEHC GEHC GEHC ACEC NCLA NCLA BENC BENC NCLA BENC BENC NCLA BENC NCLA BENC NCLA BRBX DMEO PRPC NCLA NCLA ACEC NCLA NCLA FORN NCLA NCLA FORO BENC NCLA BENC NCLA BENC NCLA BENC BENC NCLA BENC NCLA

> <cluster_id>
1

> <rmsd_to_cluster_rep>
0.00    

> <ligRMSD>
1.93    

> <ligCOMD>
0.56    

$$$$
ptp1b_wilson_13_1004
     RDKit          3D

 42 43  0  0  0  0  0  0  0  0999 V2000
   43.9952   12.3553   -0.4289 S   0  0  0  0  0  0  0  0  0  0  0  0
   43.4122   13.7828    0.3426 C   0  0  0  0  0  0  0  0  0  0  0  0
   44.1683   14.0859    1.4481 C   0  0  0  0  0  0  0  0  0  0  0  0
   45.1618   13.1387    1.6673 C   0  0  0  0  0  0  0  0  0  0  0  0
   45.2452   12.1191    0.7395 C   0  0  0  0  0  0  0  0  0  0  0  0
   42.2598   14.4669   -0.3350 C   0  0  0  0  0  0  0  0  0  0  0  0
   41.5502   13.8148   -1.1516 O   0  0  0  0  0  0  0  0  0  0  0  0
   42.0928   15.6797   -0.0217 O   0  0  0  0  0  0  0  0  0  0  0  0
   46.0409   10.8841    0.5941 C   0  0  0  0  0  0  0  0  0  0  0  0
   47.4391   10.9104    0.8167 C   0  0  0  0  0  0  0  0  0  0  0  0
   47.9356   11.8313    1.0839 H   0  0  0  0  0  0  0  0  0  0  0  0
   48.2125    9.7437    0.7220 C   0  0  0  0  0  0  0  0  0  0  0  0
   47.6154    8.5399    0.3312 C   0  0  0  0  0  0  0  0  0  0  0  0
   48.2131    7.6468    0.2198 H   0  0  0  0  0  0  0  0  0  0  0  0
   46.2439    8.4895    0.0876 C   0  0  0  0  0  0  0  0  0  0  0  0
   45.7807    7.5582   -0.2048 H   0  0  0  0  0  0  0  0  0  0  0  0
   45.4647    9.6403    0.2365 C   0  0  0  0  0  0  0  0  0  0  0  0
   44.4025    9.5547    0.0593 H   0  0  0  0  0  0  0  0  0  0  0  0
   46.3152   13.2844    3.1874 Br  0  0  0  0  0  0  0  0  0  0  0  0
   43.8980   15.1226    2.2603 O   0  0  0  0  0  0  0  0  0  0  0  0
   44.9113   16.1419    2.3463 C   0  0  0  0  0  0  0  0  0  0  0  0
   44.5712   17.0450    1.7923 H   0  0  0  0  0  0  0  0  0  0  0  0
   45.8759   15.7955    1.9097 H   0  0  0  0  0  0  0  0  0  0  0  0
   45.1808   16.5505    3.8080 C   0  0  0  0  0  0  0  0  0  0  0  0
   44.5158   15.9661    4.7037 O   0  0  0  0  0  0  0  0  0  0  0  0
   46.0561   17.4432    3.9751 O   0  0  0  0  0  0  0  0  0  0  0  0
   49.6068    9.8278    0.9788 N   0  0  0  0  0  0  0  0  0  0  0  0
   50.0358   10.6808    0.6967 H   0  0  0  0  0  0  0  0  0  0  0  0
   50.3696    8.8920    1.6397 C   0  0  0  0  0  0  0  0  0  0  0  0
   49.6869    8.1101    2.5445 N   0  0  0  0  0  0  0  0  0  0  0  0
   50.2960    7.0894    3.3437 C   0  0  0  0  0  0  0  0  0  0  0  0
   51.3053    7.6640    4.3544 C   0  0  0  0  0  0  0  0  0  0  0  0
   52.1847    8.0892    3.8270 H   0  0  0  0  0  0  0  0  0  0  0  0
   51.6593    6.8675    5.0419 H   0  0  0  0  0  0  0  0  0  0  0  0
   50.8307    8.4684    4.9553 H   0  0  0  0  0  0  0  0  0  0  0  0
   50.8682    5.9342    2.4999 C   0  0  0  0  0  0  0  0  0  0  0  0
   51.7389    6.2796    1.9046 H   0  0  0  0  0  0  0  0  0  0  0  0
   50.0944    5.5476    1.8036 H   0  0  0  0  0  0  0  0  0  0  0  0
   51.2013    5.1047    3.1582 H   0  0  0  0  0  0  0  0  0  0  0  0
   49.4562    6.6607    3.9404 H   0  0  0  0  0  0  0  0  0  0  0  0
   48.7264    8.2976    2.7302 H   0  0  0  0  0  0  0  0  0  0  0  0
   51.5786    8.8208    1.4325 O   0  0  0  0  0  0  0  0  0  0  0  0
  1  2  1  0
  1  5  1  0
  2  3  2  0
  2  6  1  0
  3  4  1  0
  3 20  1  0
  4  5  2  0
  4 19  1  0
  5  9  1  0
  6  7  2  0
  6  8  1  0
  9 10  2  0
  9 17  1  0
 10 11  1  0
 10 12  1  0
 12 13  2  0
 12 27  1  0
 13 14  1  0
 13 15  1  0
 15 16  1  0
 15 17  2  0
 17 18  1  0
 20 21  1  0
 21 22  1  0
 21 23  1  0
 21 24  1  0
 24 25  2  0
 24 26  1  0
 27 28  1  0
 27 29  1  0
 29 30  1  0
 29 42  2  0
 30 31  1  0
 30 41  1  0
 31 32  1  0
 31 36  1  0
 31 40  1  0
 32 33  1  0
 32 34  1  0
 32 35  1  0
 36 37  1  0
 36 38  1  0
 36 39  1  0
M  CHG  2   8  -1  26  -1
M  END
> <intraLJ>
14.632    

> <intraEL>
-0.020    

> <intraDihe>
27.622    

> <interLJ>
0.000     

> <interEJ>
0.000     

> <gridLJ>
-4.648    

> <gridEL>
0.000     

> <totalE>
37.587    

> <LGFE>
-4.648  

> <LE>
-0.172  

> <SMILES>
CC(C)NC(=O)Nc1cccc(-c2sc(C(=O)[O-])c(OCC(=O)[O-])c2Br)c1

> <atom.dprop.GFE>
-0.5278 -0.0636 0.0233 -0.0699 -0.2474 -0.9060 0.0000 0.0000 -0.2320 -0.0456 0.0000 -0.0994 -0.0972 0.0000 -0.1695 0.0000 -0.2325 0.0000 -0.4620 1.0610 1.3443 0.0000 0.0000 -3.2880 0.0000 0.0000 0.1140 0.0000 0.0000 -0.2330 -0.3393 0.2065 0.0000 0.0000 0.0000 -0.2058 0.0000 0.0000 0.0000 0.0000 0.0000 -0.1780

> <atom.prop.CLASS>
PRPC GEHC GEHC GEHC GEHC ACEC NCLA NCLA BENC BENC NCLA BENC BENC NCLA BENC NCLA BENC NCLA BRBX DMEO PRPC NCLA NCLA ACEC NCLA NCLA FORN NCLA NCLA FORN PRPC PRPC NCLA NCLA NCLA PRPC NCLA NCLA NCLA NCLA NCLA FORO

> <cluster_id>
1

> <rmsd_to_cluster_rep>
0.00    

> <ligRMSD>
2.31    

> <ligCOMD>
0.69    

$$$$
ptp1b_wilson_14_715
     RDKit          3D

 35 36  0  0  0  0  0  0  0  0999 V2000
   44.4172   12.1029   -0.2200 S   0  0  0  0  0  0  0  0  0  0  0  0
   44.1493   13.7663    0.1453 C   0  0  0  0  0  0  0  0  0  0  0  0
   44.9119   14.1611    1.2167 C   0  0  0  0  0  0  0  0  0  0  0  0
   45.6516   13.1061    1.7386 C   0  0  0  0  0  0  0  0  0  0  0  0
   45.5332   11.8967    1.0820 C   0  0  0  0  0  0  0  0  0  0  0  0
   43.2133   14.4947   -0.7760 C   0  0  0  0  0  0  0  0  0  0  0  0
   42.3492   13.8376   -1.4219 O   0  0  0  0  0  0  0  0  0  0  0  0
   43.3763   15.7467   -0.8309 O   0  0  0  0  0  0  0  0  0  0  0  0
   46.0256   10.5213    1.3000 C   0  0  0  0  0  0  0  0  0  0  0  0
   47.3775   10.2986    1.6595 C   0  0  0  0  0  0  0  0  0  0  0  0
   48.0595   11.1292    1.7633 H   0  0  0  0  0  0  0  0  0  0  0  0
   47.8618    9.0048    1.9174 C   0  0  0  0  0  0  0  0  0  0  0  0
   47.0204    7.9018    1.7467 C   0  0  0  0  0  0  0  0  0  0  0  0
   47.3933    6.9000    1.9008 H   0  0  0  0  0  0  0  0  0  0  0  0
   45.6913    8.0897    1.3683 C   0  0  0  0  0  0  0  0  0  0  0  0
   45.0400    7.2368    1.2435 H   0  0  0  0  0  0  0  0  0  0  0  0
   45.1952    9.3813    1.1699 C   0  0  0  0  0  0  0  0  0  0  0  0
   44.1536    9.4845    0.9026 H   0  0  0  0  0  0  0  0  0  0  0  0
   46.7463   13.3684    3.2860 Br  0  0  0  0  0  0  0  0  0  0  0  0
   44.8560   15.3980    1.7403 O   0  0  0  0  0  0  0  0  0  0  0  0
   46.0388   16.2044    1.5867 C   0  0  0  0  0  0  0  0  0  0  0  0
   45.9552   16.8040    0.6531 H   0  0  0  0  0  0  0  0  0  0  0  0
   46.9563   15.5751    1.5276 H   0  0  0  0  0  0  0  0  0  0  0  0
   46.2176   17.1795    2.7670 C   0  0  0  0  0  0  0  0  0  0  0  0
   45.3698   17.1244    3.6966 O   0  0  0  0  0  0  0  0  0  0  0  0
   47.2119   17.9521    2.6929 O   0  0  0  0  0  0  0  0  0  0  0  0
   49.2260    8.8578    2.2935 N   0  0  0  0  0  0  0  0  0  0  0  0
   49.7748    9.6689    2.1155 H   0  0  0  0  0  0  0  0  0  0  0  0
   49.7983    7.8627    3.0608 C   0  0  0  0  0  0  0  0  0  0  0  0
   48.9004    7.0994    3.7475 O   0  0  0  0  0  0  0  0  0  0  0  0
   49.4481    6.0661    4.5858 C   0  0  0  0  0  0  0  0  0  0  0  0
   48.6214    5.5209    5.0898 H   0  0  0  0  0  0  0  0  0  0  0  0
   50.1066    6.5029    5.3685 H   0  0  0  0  0  0  0  0  0  0  0  0
   50.0305    5.3366    3.9811 H   0  0  0  0  0  0  0  0  0  0  0  0
   51.0144    7.7080    3.1389 O   0  0  0  0  0  0  0  0  0  0  0  0
  1  2  1  0
  1  5  1  0
  2  3  2  0
  2  6  1  0
  3  4  1  0
  3 20  1  0
  4  5  2  0
  4 19  1  0
  5  9  1  0
  6  7  2  0
  6  8  1  0
  9 10  2  0
  9 17  1  0
 10 11  1  0
 10 12  1  0
 12 13  2  0
 12 27  1  0
 13 14  1  0
 13 15  1  0
 15 16  1  0
 15 17  2  0
 17 18  1  0
 20 21  1  0
 21 22  1  0
 21 23  1  0
 21 24  1  0
 24 25  2  0
 24 26  1  0
 27 28  1  0
 27 29  1  0
 29 30  1  0
 29 35  2  0
 30 31  1  0
 31 32  1  0
 31 33  1  0
 31 34  1  0
M  CHG  2   8  -1  26  -1
M  END
> <intraLJ>
15.414    

> <intraEL>
5.422     

> <intraDihe>
21.485    

> <interLJ>
0.000     

> <interEJ>
0.000     

> <gridLJ>
-4.993    

> <gridEL>
0.000     

> <totalE>
37.328    

> <LGFE>
-4.993  

> <LE>
-0.200  

> <SMILES>
COC(=O)Nc1cccc(-c2sc(C(=O)[O-])c(OCC(=O)[O-])c2Br)c1

> <atom.dprop.GFE>
-0.6503 -0.0636 0.1032 -0.0080 -0.0992 -0.5960 0.0000 0.0000 -0.2261 -0.0456 0.0000 -0.1032 -0.1717 0.0000 -0.0443 0.0000 -0.1835 0.0000 -0.4620 1.0610 0.8715 0.0000 0.0000 -2.7610 0.0000 0.0000 -0.1170 0.0000 0.0000 -1.3410 -0.1835 0.0000 0.0000 0.0000 0.0270

> <atom.prop.CLASS>
PRPC GEHC GEHC GEHC GEHC ACEC NCLA NCLA BENC BENC NCLA BENC BENC NCLA BENC NCLA BENC NCLA BRBX DMEO PRPC NCLA NCLA ACEC NCLA NCLA FORN NCLA NCLA DMEO PRPC NCLA NCLA NCLA FORO

> <cluster_id>
1

> <rmsd_to_cluster_rep>
0.00    

> <ligRMSD>
2.13    

> <ligCOMD>
0.83    

$$$$
ptp1b_wilson_15_710
     RDKit          3D

 42 44  0  0  0  0  0  0  0  0999 V2000
   43.9968   11.9814    0.0294 S   0  0  0  0  0  0  0  0  0  0  0  0
   43.6744   13.5398    0.6910 C   0  0  0  0  0  0  0  0  0  0  0  0
   44.7010   13.9459    1.5067 C   0  0  0  0  0  0  0  0  0  0  0  0
   45.6911   12.9763    1.6109 C   0  0  0  0  0  0  0  0  0  0  0  0
   45.5003   11.8304    0.8653 C   0  0  0  0  0  0  0  0  0  0  0  0
   42.4060   14.1972    0.2274 C   0  0  0  0  0  0  0  0  0  0  0  0
   41.4469   13.4764   -0.1678 O   0  0  0  0  0  0  0  0  0  0  0  0
   42.4063   15.4601    0.2714 O   0  0  0  0  0  0  0  0  0  0  0  0
   46.1931   10.5350    0.7229 C   0  0  0  0  0  0  0  0  0  0  0  0
   47.6002   10.4994    0.5582 C   0  0  0  0  0  0  0  0  0  0  0  0
   48.1607   11.4227    0.5334 H   0  0  0  0  0  0  0  0  0  0  0  0
   48.2994    9.2846    0.4264 C   0  0  0  0  0  0  0  0  0  0  0  0
   47.5655    8.0807    0.4099 C   0  0  0  0  0  0  0  0  0  0  0  0
   48.0624    7.1300    0.2878 H   0  0  0  0  0  0  0  0  0  0  0  0
   46.1822    8.0890    0.5731 C   0  0  0  0  0  0  0  0  0  0  0  0
   45.6328    7.1583    0.5755 H   0  0  0  0  0  0  0  0  0  0  0  0
   45.5072    9.2975    0.7451 C   0  0  0  0  0  0  0  0  0  0  0  0
   44.4362    9.2607    0.8831 H   0  0  0  0  0  0  0  0  0  0  0  0
   47.2017   13.2568    2.7501 Br  0  0  0  0  0  0  0  0  0  0  0  0
   44.6796   15.1029    2.1899 O   0  0  0  0  0  0  0  0  0  0  0  0
   45.5911   16.1194    1.7342 C   0  0  0  0  0  0  0  0  0  0  0  0
   45.1457   16.6462    0.8611 H   0  0  0  0  0  0  0  0  0  0  0  0
   46.5694   15.6828    1.4280 H   0  0  0  0  0  0  0  0  0  0  0  0
   45.8715   17.1651    2.8308 C   0  0  0  0  0  0  0  0  0  0  0  0
   45.3265   16.9896    3.9525 O   0  0  0  0  0  0  0  0  0  0  0  0
   46.6344   18.1129    2.4984 O   0  0  0  0  0  0  0  0  0  0  0  0
   49.7181    9.3256    0.3315 N   0  0  0  0  0  0  0  0  0  0  0  0
   50.0043   10.0404   -0.3374 H   0  0  0  0  0  0  0  0  0  0  0  0
   50.5851    9.4530    1.7475 S   0  0  0  0  0  0  0  0  0  0  0  0
   51.9981    9.4043    1.4680 O   0  0  0  0  0  0  0  0  0  0  0  0
   50.0348   10.4912    2.5823 O   0  0  0  0  0  0  0  0  0  0  0  0
   49.6020    5.5297    3.9033 C   0  0  0  0  0  0  0  0  0  0  0  0
   49.3118    4.3655    4.5433 F   0  0  0  0  0  0  0  0  0  0  0  0
   50.6241    5.5464    2.9583 C   0  0  0  0  0  0  0  0  0  0  0  0
   51.1873    4.6534    2.7321 H   0  0  0  0  0  0  0  0  0  0  0  0
   50.9174    6.7456    2.2934 C   0  0  0  0  0  0  0  0  0  0  0  0
   51.7106    6.7528    1.5605 H   0  0  0  0  0  0  0  0  0  0  0  0
   50.1923    7.9239    2.5732 C   0  0  0  0  0  0  0  0  0  0  0  0
   49.1653    7.8716    3.5393 C   0  0  0  0  0  0  0  0  0  0  0  0
   48.5954    8.7585    3.7745 H   0  0  0  0  0  0  0  0  0  0  0  0
   48.8678    6.6737    4.2063 C   0  0  0  0  0  0  0  0  0  0  0  0
   48.0780    6.6486    4.9419 H   0  0  0  0  0  0  0  0  0  0  0  0
  1  2  1  0
  1  5  1  0
  2  3  2  0
  2  6  1  0
  3  4  1  0
  3 20  1  0
  4  5  2  0
  4 19  1  0
  5  9  1  0
  6  7  2  0
  6  8  1  0
  9 10  2  0
  9 17  1  0
 10 11  1  0
 10 12  1  0
 12 13  2  0
 12 27  1  0
 13 14  1  0
 13 15  1  0
 15 16  1  0
 15 17  2  0
 17 18  1  0
 20 21  1  0
 21 22  1  0
 21 23  1  0
 21 24  1  0
 24 25  2  0
 24 26  1  0
 27 28  1  0
 27 29  1  0
 29 30  2  0
 29 31  2  0
 29 38  1  0
 32 33  1  0
 32 34  2  0
 32 41  1  0
 34 35  1  0
 34 36  1  0
 36 37  1  0
 36 38  2  0
 38 39  1  0
 39 40  1  0
 39 41  2  0
 41 42  1  0
M  CHG  2   8  -1  26  -1
M  END
> <intraLJ>
20.659    

> <intraEL>
8.321     

> <intraDihe>
24.721    

> <interLJ>
0.000     

> <interEJ>
0.000     

> <gridLJ>
-4.845    

> <gridEL>
0.000     

> <totalE>
48.857    

> <LGFE>
-4.845  

> <LE>
-0.156  

> <SMILES>
O=C([O-])COc1c(C(=O)[O-])sc(-c2cccc(NS(=O)(=O)c3ccc(F)cc3)c2)c1Br

> <atom.dprop.GFE>
-0.6194 -0.0636 0.1032 -0.0080 -0.0992 -0.5260 0.0000 0.0000 -0.2320 -0.1055 0.0000 -0.0994 -0.1256 0.0000 -0.0743 0.0000 -0.2325 0.0000 -0.4620 0.9550 0.5691 0.0000 0.0000 -2.7610 0.0000 0.0000 0.0910 0.0000 0.0000 0.3770 -0.0310 -0.0112 -1.0770 -0.1214 0.0000 -0.0907 0.0000 -0.1111 -0.1408 0.0000 0.0513 0.0000

> <atom.prop.CLASS>
PRPC GEHC GEHC GEHC GEHC ACEC NCLA NCLA BENC BENC NCLA BENC BENC NCLA BENC NCLA BENC NCLA BRBX DMEO PRPC NCLA NCLA ACEC NCLA NCLA FORN NCLA NCLA FORO FORO BENC FLBX BENC NCLA BENC NCLA BENC BENC NCLA BENC NCLA

> <cluster_id>
1

> <rmsd_to_cluster_rep>
0.00    

> <ligRMSD>
2.78    

> <ligCOMD>
1.08    

$$$$
ptp1b_wilson_16_2qbr_474
     RDKit          3D

 42 44  0  0  0  0  0  0  0  0999 V2000
   44.6634   11.9009   -0.3821 S   0  0  0  0  0  0  0  0  0  0  0  0
   44.1912   13.5147   -0.0050 C   0  0  0  0  0  0  0  0  0  0  0  0
   44.8233   13.9559    1.1308 C   0  0  0  0  0  0  0  0  0  0  0  0
   45.6305   12.9712    1.6869 C   0  0  0  0  0  0  0  0  0  0  0  0
   45.6885   11.7756    0.9996 C   0  0  0  0  0  0  0  0  0  0  0  0
   43.2587   14.1682   -0.9842 C   0  0  0  0  0  0  0  0  0  0  0  0
   42.5058   13.4451   -1.6955 O   0  0  0  0  0  0  0  0  0  0  0  0
   43.3095   15.4305   -1.0165 O   0  0  0  0  0  0  0  0  0  0  0  0
   46.2993   10.4528    1.2233 C   0  0  0  0  0  0  0  0  0  0  0  0
   47.6561   10.3716    1.6171 C   0  0  0  0  0  0  0  0  0  0  0  0
   48.2390   11.2716    1.7482 H   0  0  0  0  0  0  0  0  0  0  0  0
   48.2720    9.1307    1.8434 C   0  0  0  0  0  0  0  0  0  0  0  0
   47.5410    7.9462    1.6796 C   0  0  0  0  0  0  0  0  0  0  0  0
   47.9897    6.9824    1.8753 H   0  0  0  0  0  0  0  0  0  0  0  0
   46.2061    8.0007    1.2813 C   0  0  0  0  0  0  0  0  0  0  0  0
   45.6424    7.0875    1.1563 H   0  0  0  0  0  0  0  0  0  0  0  0
   45.5891    9.2365    1.0700 C   0  0  0  0  0  0  0  0  0  0  0  0
   44.5479    9.2380    0.7820 H   0  0  0  0  0  0  0  0  0  0  0  0
   46.5647   13.2981    3.3238 Br  0  0  0  0  0  0  0  0  0  0  0  0
   44.5930   15.1628    1.6743 O   0  0  0  0  0  0  0  0  0  0  0  0
   45.6841   16.0986    1.6060 C   0  0  0  0  0  0  0  0  0  0  0  0
   45.6679   16.6082    0.6169 H   0  0  0  0  0  0  0  0  0  0  0  0
   46.6674   15.5893    1.7301 H   0  0  0  0  0  0  0  0  0  0  0  0
   45.5790   17.1778    2.7006 C   0  0  0  0  0  0  0  0  0  0  0  0
   44.6177   17.0930    3.5097 O   0  0  0  0  0  0  0  0  0  0  0  0
   46.4819   18.0584    2.6847 O   0  0  0  0  0  0  0  0  0  0  0  0
   49.5717    9.0623    2.3709 N   0  0  0  0  0  0  0  0  0  0  0  0
   50.0159    9.9723    2.4901 H   0  0  0  0  0  0  0  0  0  0  0  0
   50.5166    8.1039    1.7517 C   0  0  0  0  0  0  0  0  0  0  0  0
   50.0006    7.4116    1.0520 H   0  0  0  0  0  0  0  0  0  0  0  0
   51.0304    7.5069    2.5359 H   0  0  0  0  0  0  0  0  0  0  0  0
   53.5052   10.3962   -0.3209 C   0  0  0  0  0  0  0  0  0  0  0  0
   54.2642   10.9777   -0.8230 H   0  0  0  0  0  0  0  0  0  0  0  0
   53.8685    9.4978    0.6898 C   0  0  0  0  0  0  0  0  0  0  0  0
   54.9059    9.3865    0.9693 H   0  0  0  0  0  0  0  0  0  0  0  0
   52.8844    8.7468    1.3378 C   0  0  0  0  0  0  0  0  0  0  0  0
   53.1642    8.0601    2.1235 H   0  0  0  0  0  0  0  0  0  0  0  0
   51.5317    8.8864    0.9789 C   0  0  0  0  0  0  0  0  0  0  0  0
   51.1698    9.7947   -0.0284 C   0  0  0  0  0  0  0  0  0  0  0  0
   50.1316    9.9198   -0.2976 H   0  0  0  0  0  0  0  0  0  0  0  0
   52.1577   10.5468   -0.6778 C   0  0  0  0  0  0  0  0  0  0  0  0
   51.8805   11.2456   -1.4531 H   0  0  0  0  0  0  0  0  0  0  0  0
  1  2  1  0
  1  5  1  0
  2  3  2  0
  2  6  1  0
  3  4  1  0
  3 20  1  0
  4  5  2  0
  4 19  1  0
  5  9  1  0
  6  7  2  0
  6  8  1  0
  9 10  2  0
  9 17  1  0
 10 11  1  0
 10 12  1  0
 12 13  2  0
 12 27  1  0
 13 14  1  0
 13 15  1  0
 15 16  1  0
 15 17  2  0
 17 18  1  0
 20 21  1  0
 21 22  1  0
 21 23  1  0
 21 24  1  0
 24 25  2  0
 24 26  1  0
 27 28  1  0
 27 29  1  0
 29 30  1  0
 29 31  1  0
 29 38  1  0
 32 33  1  0
 32 34  2  0
 32 41  1  0
 34 35  1  0
 34 36  1  0
 36 37  1  0
 36 38  2  0
 38 39  1  0
 39 40  1  0
 39 41  2  0
 41 42  1  0
M  CHG  2   8  -1  26  -1
M  END
> <intraLJ>
25.851    

> <intraEL>
10.300    

> <intraDihe>
27.157    

> <interLJ>
0.000     

> <interEJ>
0.000     

> <gridLJ>
-3.717    

> <gridEL>
0.000     

> <totalE>
59.591    

> <LGFE>
-3.717  

> <LE>
-0.133  

> <SMILES>
O=C([O-])COc1c(C(=O)[O-])sc(-c2cccc(NCc3ccccc3)c2)c1Br

> <atom.dprop.GFE>
-0.5498 -0.0636 0.1032 -0.0080 -0.0992 -0.5960 0.0000 0.0000 -0.2261 -0.0456 0.0000 -0.1032 -0.1947 0.0000 -0.0443 0.0000 -0.2019 0.0000 -0.4620 0.5500 0.5691 0.0000 0.0000 -2.6910 0.0000 0.0000 -0.0310 0.0000 -0.0796 0.0000 0.0000 0.0733 0.0000 0.0838 0.0000 0.0802 0.0000 0.0827 0.0710 0.0000 0.0656 0.0000

> <atom.prop.CLASS>
PRPC GEHC GEHC GEHC GEHC ACEC NCLA NCLA BENC BENC NCLA BENC BENC NCLA BENC NCLA BENC NCLA BRBX DMEO PRPC NCLA NCLA ACEC NCLA NCLA FORN NCLA PRPC NCLA NCLA BENC NCLA BENC NCLA BENC NCLA BENC BENC NCLA BENC NCLA

> <cluster_id>
1

> <rmsd_to_cluster_rep>
0.00    

> <ligRMSD>
2.28    

> <ligCOMD>
0.59    

$$$$
ptp1b_wilson_17_60
     RDKit          3D

 41 43  0  0  0  0  0  0  0  0999 V2000
   44.5411   11.9533   -0.8542 S   0  0  0  0  0  0  0  0  0  0  0  0
   44.0935   13.5682   -0.4485 C   0  0  0  0  0  0  0  0  0  0  0  0
   44.6870   13.9597    0.7259 C   0  0  0  0  0  0  0  0  0  0  0  0
   45.4443   12.9368    1.2856 C   0  0  0  0  0  0  0  0  0  0  0  0
   45.5038   11.7593    0.5650 C   0  0  0  0  0  0  0  0  0  0  0  0
   43.2176   14.2736   -1.4445 C   0  0  0  0  0  0  0  0  0  0  0  0
   43.5340   15.4343   -1.8298 O   0  0  0  0  0  0  0  0  0  0  0  0
   42.2019   13.6248   -1.8246 O   0  0  0  0  0  0  0  0  0  0  0  0
   46.0738   10.4127    0.7765 C   0  0  0  0  0  0  0  0  0  0  0  0
   47.3758   10.2854    1.3063 C   0  0  0  0  0  0  0  0  0  0  0  0
   47.9562   11.1659    1.5420 H   0  0  0  0  0  0  0  0  0  0  0  0
   47.9672    9.0361    1.5460 C   0  0  0  0  0  0  0  0  0  0  0  0
   47.2600    7.8638    1.2259 C   0  0  0  0  0  0  0  0  0  0  0  0
   47.6842    6.8856    1.3903 H   0  0  0  0  0  0  0  0  0  0  0  0
   45.9728    7.9614    0.6828 C   0  0  0  0  0  0  0  0  0  0  0  0
   45.4238    7.0644    0.4353 H   0  0  0  0  0  0  0  0  0  0  0  0
   45.3829    9.2143    0.4773 C   0  0  0  0  0  0  0  0  0  0  0  0
   44.3807    9.2434    0.0751 H   0  0  0  0  0  0  0  0  0  0  0  0
   46.3183   13.1963    2.9679 Br  0  0  0  0  0  0  0  0  0  0  0  0
   44.4641   15.1569    1.2954 O   0  0  0  0  0  0  0  0  0  0  0  0
   45.5671   16.0817    1.2718 C   0  0  0  0  0  0  0  0  0  0  0  0
   45.6017   16.5854    0.2802 H   0  0  0  0  0  0  0  0  0  0  0  0
   46.5379   15.5628    1.4440 H   0  0  0  0  0  0  0  0  0  0  0  0
   45.4216   17.1683    2.3550 C   0  0  0  0  0  0  0  0  0  0  0  0
   44.4153   17.1035    3.1094 O   0  0  0  0  0  0  0  0  0  0  0  0
   46.3389   18.0335    2.3871 O   0  0  0  0  0  0  0  0  0  0  0  0
   49.2521    9.0331    2.1083 O   0  0  0  0  0  0  0  0  0  0  0  0
   49.7894    7.8533    2.6951 C   0  0  0  0  0  0  0  0  0  0  0  0
   50.1018    7.1239    1.9150 H   0  0  0  0  0  0  0  0  0  0  0  0
   49.0521    7.3869    3.3861 H   0  0  0  0  0  0  0  0  0  0  0  0
   53.2170    9.0203    5.0571 C   0  0  0  0  0  0  0  0  0  0  0  0
   54.0621    9.3078    5.6650 H   0  0  0  0  0  0  0  0  0  0  0  0
   53.2977    7.8891    4.2341 C   0  0  0  0  0  0  0  0  0  0  0  0
   54.2050    7.3039    4.2102 H   0  0  0  0  0  0  0  0  0  0  0  0
   52.2004    7.5125    3.4462 C   0  0  0  0  0  0  0  0  0  0  0  0
   52.2656    6.6324    2.8241 H   0  0  0  0  0  0  0  0  0  0  0  0
   51.0173    8.2729    3.4670 C   0  0  0  0  0  0  0  0  0  0  0  0
   50.9443    9.4012    4.3060 C   0  0  0  0  0  0  0  0  0  0  0  0
   50.0320    9.9781    4.3479 H   0  0  0  0  0  0  0  0  0  0  0  0
   52.0376    9.7737    5.0969 C   0  0  0  0  0  0  0  0  0  0  0  0
   51.9707   10.6409    5.7373 H   0  0  0  0  0  0  0  0  0  0  0  0
  1  2  1  0
  1  5  1  0
  2  3  2  0
  2  6  1  0
  3  4  1  0
  3 20  1  0
  4  5  2  0
  4 19  1  0
  5  9  1  0
  6  7  2  0
  6  8  1  0
  9 10  2  0
  9 17  1  0
 10 11  1  0
 10 12  1  0
 12 13  2  0
 12 27  1  0
 13 14  1  0
 13 15  1  0
 15 16  1  0
 15 17  2  0
 17 18  1  0
 20 21  1  0
 21 22  1  0
 21 23  1  0
 21 24  1  0
 24 25  2  0
 24 26  1  0
 27 28  1  0
 28 29  1  0
 28 30  1  0
 28 37  1  0
 31 32  1  0
 31 33  2  0
 31 40  1  0
 33 34  1  0
 33 35  1  0
 35 36  1  0
 35 37  2  0
 37 38  1  0
 38 39  1  0
 38 40  2  0
 40 41  1  0
M  CHG  2   8  -1  26  -1
M  END
> <intraLJ>
22.909    

> <intraEL>
10.257    

> <intraDihe>
22.133    

> <interLJ>
0.000     

> <interEJ>
0.000     

> <gridLJ>
-4.243    

> <gridEL>
0.000     

> <totalE>
51.055    

> <LGFE>
-4.243  

> <LE>
-0.152  

> <SMILES>
O=C([O-])COc1c(C(=O)[O-])sc(-c2cccc(OCc3ccccc3)c2)c1Br

> <atom.dprop.GFE>
-0.5498 -0.0386 -0.0333 -0.0080 -0.1295 -1.0020 0.0000 0.0000 -0.2261 -0.0456 0.0000 -0.1425 -0.1717 0.0000 -0.0743 0.0000 -0.2325 0.0000 -0.4620 0.5500 0.5691 0.0000 0.0000 -2.6910 0.0000 0.0000 -0.2670 -0.2288 0.0000 0.0000 0.1416 0.0000 0.0417 0.0000 0.0459 0.0000 0.0192 0.2874 0.0000 0.4041 0.0000

> <atom.prop.CLASS>
PRPC GEHC GEHC GEHC GEHC ACEC NCLA NCLA BENC BENC NCLA BENC BENC NCLA BENC NCLA BENC NCLA BRBX DMEO PRPC NCLA NCLA ACEC NCLA NCLA DMEO PRPC NCLA NCLA BENC NCLA BENC NCLA BENC NCLA BENC BENC NCLA BENC NCLA

> <cluster_id>
1

> <rmsd_to_cluster_rep>
0.00    

> <ligRMSD>
2.77    

> <ligCOMD>
0.57    

$$$$
ptp1b_wilson_18_358
     RDKit          3D

 48 50  0  0  0  0  0  0  0  0999 V2000
   46.8869   14.3003   -0.2240 S   0  0  0  0  0  0  0  0  0  0  0  0
   45.6757   14.8034    0.8944 C   0  0  0  0  0  0  0  0  0  0  0  0
   45.3876   13.8014    1.7878 C   0  0  0  0  0  0  0  0  0  0  0  0
   46.1135   12.6476    1.5186 C   0  0  0  0  0  0  0  0  0  0  0  0
   47.0020   12.7226    0.4645 C   0  0  0  0  0  0  0  0  0  0  0  0
   45.2055   16.2224    0.7526 C   0  0  0  0  0  0  0  0  0  0  0  0
   46.0571   17.1552    0.7362 O   0  0  0  0  0  0  0  0  0  0  0  0
   43.9537   16.3687    0.6605 O   0  0  0  0  0  0  0  0  0  0  0  0
   47.8905   11.7808   -0.2402 C   0  0  0  0  0  0  0  0  0  0  0  0
   48.7354   10.9333    0.5107 C   0  0  0  0  0  0  0  0  0  0  0  0
   48.7344   10.9890    1.5901 H   0  0  0  0  0  0  0  0  0  0  0  0
   49.5713    9.9983   -0.1162 C   0  0  0  0  0  0  0  0  0  0  0  0
   50.3291    9.1486    0.7055 N   0  0  0  0  0  0  0  0  0  0  0  0
   51.3327    9.3198    0.7450 H   0  0  0  0  0  0  0  0  0  0  0  0
   49.7645    8.6784    1.9895 C   0  0  0  0  0  0  0  0  0  0  0  0
   50.5070    8.0018    2.4722 H   0  0  0  0  0  0  0  0  0  0  0  0
   49.5975    9.5159    2.6984 H   0  0  0  0  0  0  0  0  0  0  0  0
   49.6286    9.9386   -1.5168 C   0  0  0  0  0  0  0  0  0  0  0  0
   50.2929    9.2503   -2.0190 H   0  0  0  0  0  0  0  0  0  0  0  0
   48.8171   10.7785   -2.2803 C   0  0  0  0  0  0  0  0  0  0  0  0
   48.8520   10.7288   -3.3590 H   0  0  0  0  0  0  0  0  0  0  0  0
   47.9438   11.6704   -1.6510 C   0  0  0  0  0  0  0  0  0  0  0  0
   47.3151   12.2873   -2.2763 H   0  0  0  0  0  0  0  0  0  0  0  0
   45.8463   11.0714    2.5706 Br  0  0  0  0  0  0  0  0  0  0  0  0
   44.4410   13.9139    2.7351 O   0  0  0  0  0  0  0  0  0  0  0  0
   44.5150   15.0884    3.5642 C   0  0  0  0  0  0  0  0  0  0  0  0
   43.7200   15.8040    3.2576 H   0  0  0  0  0  0  0  0  0  0  0  0
   45.5048   15.5913    3.4716 H   0  0  0  0  0  0  0  0  0  0  0  0
   44.3034   14.7475    5.0521 C   0  0  0  0  0  0  0  0  0  0  0  0
   44.1431   13.5348    5.3517 O   0  0  0  0  0  0  0  0  0  0  0  0
   44.3126   15.7292    5.8441 O   0  0  0  0  0  0  0  0  0  0  0  0
   46.7080    5.5176    2.0947 C   0  0  0  0  0  0  0  0  0  0  0  0
   45.7364    5.0067    1.9220 H   0  0  0  0  0  0  0  0  0  0  0  0
   47.3722    4.8203    2.6526 H   0  0  0  0  0  0  0  0  0  0  0  0
   46.4906    6.7780    2.9455 C   0  0  0  0  0  0  0  0  0  0  0  0
   46.0638    6.4968    3.9323 H   0  0  0  0  0  0  0  0  0  0  0  0
   45.7581    7.4371    2.4276 H   0  0  0  0  0  0  0  0  0  0  0  0
   47.7966    7.5550    3.1482 C   0  0  0  0  0  0  0  0  0  0  0  0
   48.5028    6.9376    3.7455 H   0  0  0  0  0  0  0  0  0  0  0  0
   47.5873    8.4881    3.7154 H   0  0  0  0  0  0  0  0  0  0  0  0
   48.4518    7.9068    1.7983 C   0  0  0  0  0  0  0  0  0  0  0  0
   47.7369    8.5678    1.2525 H   0  0  0  0  0  0  0  0  0  0  0  0
   48.6681    6.6378    0.9414 C   0  0  0  0  0  0  0  0  0  0  0  0
   49.4153    5.9855    1.4443 H   0  0  0  0  0  0  0  0  0  0  0  0
   49.0706    6.9175   -0.0562 H   0  0  0  0  0  0  0  0  0  0  0  0
   47.3651    5.8549    0.7490 C   0  0  0  0  0  0  0  0  0  0  0  0
   47.5676    4.9201    0.1828 H   0  0  0  0  0  0  0  0  0  0  0  0
   46.6601    6.4750    0.1513 H   0  0  0  0  0  0  0  0  0  0  0  0
  1  2  1  0
  1  5  1  0
  2  3  2  0
  2  6  1  0
  3  4  1  0
  3 25  1  0
  4  5  2  0
  4 24  1  0
  5  9  1  0
  6  7  2  0
  6  8  1  0
  9 10  2  0
  9 22  1  0
 10 11  1  0
 10 12  1  0
 12 13  1  0
 12 18  2  0
 13 14  1  0
 13 15  1  0
 15 16  1  0
 15 17  1  0
 15 41  1  0
 18 19  1  0
 18 20  1  0
 20 21  1  0
 20 22  2  0
 22 23  1  0
 25 26  1  0
 26 27  1  0
 26 28  1  0
 26 29  1  0
 29 30  2  0
 29 31  1  0
 32 33  1  0
 32 34  1  0
 32 35  1  0
 32 46  1  0
 35 36  1  0
 35 37  1  0
 35 38  1  0
 38 39  1  0
 38 40  1  0
 38 41  1  0
 41 42  1  0
 41 43  1  0
 43 44  1  0
 43 45  1  0
 43 46  1  0
 46 47  1  0
 46 48  1  0
M  CHG  2   8  -1  31  -1
M  END
> <intraLJ>
12.913    

> <intraEL>
9.434     

> <intraDihe>
22.407    

> <interLJ>
0.000     

> <interEJ>
0.000     

> <gridLJ>
-5.772    

> <gridEL>
0.000     

> <totalE>
38.982    

> <LGFE>
-5.772  

> <LE>
-0.206  

> <SMILES>
O=C([O-])COc1c(C(=O)[O-])sc(-c2cccc(NCC3CCCCC3)c2)c1Br

> <atom.dprop.GFE>
0.0526 0.3420 0.3303 -0.0080 0.0826 -1.2720 0.0000 0.0000 -0.0867 -0.0033 0.0000 0.0261 -0.2460 0.0000 -0.1209 0.0000 0.0000 0.0451 0.0000 -0.0028 0.0000 -0.0511 0.0000 0.2140 -0.2020 1.3443 0.0000 0.0000 -3.2450 0.0000 0.0000 -0.5521 0.0000 0.0000 -0.5831 0.0000 0.0000 -0.5375 0.0000 0.0000 -0.4782 0.0000 -0.3630 0.0000 0.0000 -0.4572 0.0000 0.0000

> <atom.prop.CLASS>
PRPC GEHC GEHC GEHC GEHC ACEC NCLA NCLA BENC BENC NCLA BENC FORN NCLA PRPC NCLA NCLA BENC NCLA BENC NCLA BENC NCLA BRBX DMEO PRPC NCLA NCLA ACEC NCLA NCLA PRPC NCLA NCLA PRPC NCLA NCLA PRPC NCLA NCLA PRPC NCLA PRPC NCLA NCLA PRPC NCLA NCLA

> <cluster_id>
1

> <rmsd_to_cluster_rep>
0.00    

> <ligRMSD>
3.24    

> <ligCOMD>
0.71    

$$$$
ptp1b_wilson_19_2qbs_1230
     RDKit          3D

 45 47  0  0  0  0  0  0  0  0999 V2000
   44.9650   13.7532   -0.5085 S   0  0  0  0  0  0  0  0  0  0  0  0
   44.6833   15.1555    0.4560 C   0  0  0  0  0  0  0  0  0  0  0  0
   45.1662   14.9721    1.7264 C   0  0  0  0  0  0  0  0  0  0  0  0
   45.7057   13.7002    1.8945 C   0  0  0  0  0  0  0  0  0  0  0  0
   45.6997   12.8753    0.7849 C   0  0  0  0  0  0  0  0  0  0  0  0
   44.0585   16.3304   -0.2474 C   0  0  0  0  0  0  0  0  0  0  0  0
   44.6550   16.8434   -1.2354 O   0  0  0  0  0  0  0  0  0  0  0  0
   42.9534   16.7210    0.2260 O   0  0  0  0  0  0  0  0  0  0  0  0
   46.0239   11.4506    0.5236 C   0  0  0  0  0  0  0  0  0  0  0  0
   47.1781   10.8746    1.1093 C   0  0  0  0  0  0  0  0  0  0  0  0
   47.8238   11.4892    1.7206 H   0  0  0  0  0  0  0  0  0  0  0  0
   47.5197    9.5190    0.9289 C   0  0  0  0  0  0  0  0  0  0  0  0
   46.7203    8.7201    0.0967 C   0  0  0  0  0  0  0  0  0  0  0  0
   46.9805    7.6878   -0.0847 H   0  0  0  0  0  0  0  0  0  0  0  0
   45.5900    9.2703   -0.5236 C   0  0  0  0  0  0  0  0  0  0  0  0
   44.9780    8.6564   -1.1682 H   0  0  0  0  0  0  0  0  0  0  0  0
   45.2354   10.6067   -0.2961 C   0  0  0  0  0  0  0  0  0  0  0  0
   44.3429   10.9834   -0.7741 H   0  0  0  0  0  0  0  0  0  0  0  0
   46.3552   13.1647    3.6087 Br  0  0  0  0  0  0  0  0  0  0  0  0
   45.0278   15.8928    2.6964 O   0  0  0  0  0  0  0  0  0  0  0  0
   45.4340   17.2270    2.3426 C   0  0  0  0  0  0  0  0  0  0  0  0
   44.5397   17.8073    2.0228 H   0  0  0  0  0  0  0  0  0  0  0  0
   46.1720   17.2215    1.5075 H   0  0  0  0  0  0  0  0  0  0  0  0
   46.0837   17.9701    3.5252 C   0  0  0  0  0  0  0  0  0  0  0  0
   46.2022   17.3484    4.6138 O   0  0  0  0  0  0  0  0  0  0  0  0
   46.4441   19.1545    3.2836 O   0  0  0  0  0  0  0  0  0  0  0  0
   48.7314    9.0902    1.5294 N   0  0  0  0  0  0  0  0  0  0  0  0
   49.5965    9.5323    1.2236 H   0  0  0  0  0  0  0  0  0  0  0  0
   48.9081    7.9364    2.4627 C   0  0  0  0  0  0  0  0  0  0  0  0
   49.8335    8.0928    3.0589 H   0  0  0  0  0  0  0  0  0  0  0  0
   47.6927    7.9293    3.4300 C   0  0  0  0  0  0  0  0  0  0  0  0
   46.7568    7.8497    2.8321 H   0  0  0  0  0  0  0  0  0  0  0  0
   47.6571    8.8863    3.9951 H   0  0  0  0  0  0  0  0  0  0  0  0
   47.7185    6.7630    4.4321 C   0  0  0  0  0  0  0  0  0  0  0  0
   46.7954    6.7806    5.0516 H   0  0  0  0  0  0  0  0  0  0  0  0
   48.5907    6.8964    5.1101 H   0  0  0  0  0  0  0  0  0  0  0  0
   47.8421    5.4042    3.7289 C   0  0  0  0  0  0  0  0  0  0  0  0
   46.9086    5.2120    3.1544 H   0  0  0  0  0  0  0  0  0  0  0  0
   47.9564    4.5959    4.4830 H   0  0  0  0  0  0  0  0  0  0  0  0
   49.0321    5.3879    2.7556 C   0  0  0  0  0  0  0  0  0  0  0  0
   49.0442    4.4251    2.2003 H   0  0  0  0  0  0  0  0  0  0  0  0
   49.9734    5.4564    3.3451 H   0  0  0  0  0  0  0  0  0  0  0  0
   48.9952    6.5609    1.7554 C   0  0  0  0  0  0  0  0  0  0  0  0
   49.9039    6.5253    1.1170 H   0  0  0  0  0  0  0  0  0  0  0  0
   48.1077    6.4367    1.0963 H   0  0  0  0  0  0  0  0  0  0  0  0
  1  2  1  0
  1  5  1  0
  2  3  2  0
  2  6  1  0
  3  4  1  0
  3 20  1  0
  4  5  2  0
  4 19  1  0
  5  9  1  0
  6  7  2  0
  6  8  1  0
  9 10  2  0
  9 17  1  0
 10 11  1  0
 10 12  1  0
 12 13  2  0
 12 27  1  0
 13 14  1  0
 13 15  1  0
 15 16  1  0
 15 17  2  0
 17 18  1  0
 20 21  1  0
 21 22  1  0
 21 23  1  0
 21 24  1  0
 24 25  2  0
 24 26  1  0
 27 28  1  0
 27 29  1  0
 29 30  1  0
 29 31  1  0
 29 43  1  0
 31 32  1  0
 31 33  1  0
 31 34  1  0
 34 35  1  0
 34 36  1  0
 34 37  1  0
 37 38  1  0
 37 39  1  0
 37 40  1  0
 40 41  1  0
 40 42  1  0
 40 43  1  0
 43 44  1  0
 43 45  1  0
M  CHG  2   8  -1  26  -1
M  END
> <intraLJ>
12.568    

> <intraEL>
7.724     

> <intraDihe>
24.124    

> <interLJ>
0.000     

> <interEJ>
0.000     

> <gridLJ>
-4.809    

> <gridEL>
0.000     

> <totalE>
39.607    

> <LGFE>
-4.809  

> <LE>
-0.178  

> <SMILES>
O=C([O-])COc1c(C(=O)[O-])sc(-c2cccc(NC3CCCCC3)c2)c1Br

> <atom.dprop.GFE>
-0.3813 0.1775 0.4339 0.3303 -0.0080 -0.9950 0.0000 0.0000 -0.2483 -0.1884 0.0000 -0.0805 -0.1413 0.0000 -0.1890 0.0000 -0.2154 0.0000 -0.4620 1.9690 1.3443 0.0000 0.0000 -2.7610 0.0000 0.0000 -0.2580 0.0000 -0.4782 0.0000 -0.5375 0.0000 0.0000 -0.3600 0.0000 0.0000 -0.6520 0.0000 0.0000 -0.5764 0.0000 0.0000 -0.5318 0.0000 0.0000

> <atom.prop.CLASS>
PRPC GEHC GEHC GEHC GEHC ACEC NCLA NCLA BENC BENC NCLA BENC BENC NCLA BENC NCLA BENC NCLA BRBX DMEO PRPC NCLA NCLA ACEC NCLA NCLA FORN NCLA PRPC NCLA PRPC NCLA NCLA PRPC NCLA NCLA PRPC NCLA NCLA PRPC NCLA NCLA PRPC NCLA NCLA

> <cluster_id>
1

> <rmsd_to_cluster_rep>
0.00    

> <ligRMSD>
1.72    

> <ligCOMD>
0.94    

$$$$
ptp1b_wilson_20_58
     RDKit          3D

 42 44  0  0  0  0  0  0  0  0999 V2000
   44.2667   12.7495   -0.7542 S   0  0  0  0  0  0  0  0  0  0  0  0
   44.0829   14.4287   -0.4074 C   0  0  0  0  0  0  0  0  0  0  0  0
   44.7634   14.7658    0.7359 C   0  0  0  0  0  0  0  0  0  0  0  0
   45.3719   13.6585    1.3194 C   0  0  0  0  0  0  0  0  0  0  0  0
   45.2372   12.4574    0.6490 C   0  0  0  0  0  0  0  0  0  0  0  0
   43.2972   15.2261   -1.4116 C   0  0  0  0  0  0  0  0  0  0  0  0
   42.9798   14.6903   -2.5105 O   0  0  0  0  0  0  0  0  0  0  0  0
   43.0124   16.4066   -1.0611 O   0  0  0  0  0  0  0  0  0  0  0  0
   45.6016   11.0469    0.9281 C   0  0  0  0  0  0  0  0  0  0  0  0
   46.8884   10.7043    1.4242 C   0  0  0  0  0  0  0  0  0  0  0  0
   47.6204   11.4794    1.5959 H   0  0  0  0  0  0  0  0  0  0  0  0
   47.2404    9.3680    1.7133 C   0  0  0  0  0  0  0  0  0  0  0  0
   46.3069    8.3488    1.4705 C   0  0  0  0  0  0  0  0  0  0  0  0
   46.5347    7.3122    1.6662 H   0  0  0  0  0  0  0  0  0  0  0  0
   45.0456    8.6559    0.9656 C   0  0  0  0  0  0  0  0  0  0  0  0
   44.3315    7.8654    0.7834 H   0  0  0  0  0  0  0  0  0  0  0  0
   44.6918    9.9830    0.7190 C   0  0  0  0  0  0  0  0  0  0  0  0
   43.6935   10.1726    0.3521 H   0  0  0  0  0  0  0  0  0  0  0  0
   46.3204   13.8461    2.9681 Br  0  0  0  0  0  0  0  0  0  0  0  0
   44.7448   16.0048    1.2588 O   0  0  0  0  0  0  0  0  0  0  0  0
   46.0194   16.6668    1.3623 C   0  0  0  0  0  0  0  0  0  0  0  0
   46.0738   17.4777    0.6024 H   0  0  0  0  0  0  0  0  0  0  0  0
   46.8616   15.9580    1.1904 H   0  0  0  0  0  0  0  0  0  0  0  0
   46.2214   17.3009    2.7528 C   0  0  0  0  0  0  0  0  0  0  0  0
   45.2937   17.1621    3.5931 O   0  0  0  0  0  0  0  0  0  0  0  0
   47.3142   17.9072    2.9235 O   0  0  0  0  0  0  0  0  0  0  0  0
   48.5109    9.0869    2.2704 N   0  0  0  0  0  0  0  0  0  0  0  0
   49.1504    9.8785    2.3118 H   0  0  0  0  0  0  0  0  0  0  0  0
   51.2936    6.5616    2.4371 C   0  0  0  0  0  0  0  0  0  0  0  0
   52.1743    6.5975    3.0928 H   0  0  0  0  0  0  0  0  0  0  0  0
   51.6150    6.0580    1.5116 H   0  0  0  0  0  0  0  0  0  0  0  0
   50.7609    7.9696    2.1192 C   0  0  0  0  0  0  0  0  0  0  0  0
   51.1966    8.3804    1.1991 H   0  0  0  0  0  0  0  0  0  0  0  0
   51.0393    8.6606    2.9321 H   0  0  0  0  0  0  0  0  0  0  0  0
   49.2371    7.8233    2.0487 C   0  0  0  0  0  0  0  0  0  0  0  0
   48.9321    7.4215    1.0676 H   0  0  0  0  0  0  0  0  0  0  0  0
   48.9299    6.7621    3.1074 C   0  0  0  0  0  0  0  0  0  0  0  0
   47.9723    6.2531    2.9323 H   0  0  0  0  0  0  0  0  0  0  0  0
   48.8611    7.2242    4.1058 H   0  0  0  0  0  0  0  0  0  0  0  0
   50.1219    5.7894    3.0723 C   0  0  0  0  0  0  0  0  0  0  0  0
   49.8781    4.9081    2.4583 H   0  0  0  0  0  0  0  0  0  0  0  0
   50.3666    5.4114    4.0744 H   0  0  0  0  0  0  0  0  0  0  0  0
  1  2  1  0
  1  5  1  0
  2  3  2  0
  2  6  1  0
  3  4  1  0
  3 20  1  0
  4  5  2  0
  4 19  1  0
  5  9  1  0
  6  7  2  0
  6  8  1  0
  9 10  2  0
  9 17  1  0
 10 11  1  0
 10 12  1  0
 12 13  2  0
 12 27  1  0
 13 14  1  0
 13 15  1  0
 15 16  1  0
 15 17  2  0
 17 18  1  0
 20 21  1  0
 21 22  1  0
 21 23  1  0
 21 24  1  0
 24 25  2  0
 24 26  1  0
 27 28  1  0
 27 35  1  0
 29 30  1  0
 29 31  1  0
 29 32  1  0
 29 40  1  0
 32 33  1  0
 32 34  1  0
 32 35  1  0
 35 36  1  0
 35 37  1  0
 37 38  1  0
 37 39  1  0
 37 40  1  0
 40 41  1  0
 40 42  1  0
M  CHG  2   8  -1  26  -1
M  END
> <intraLJ>
15.093    

> <intraEL>
8.422     

> <intraDihe>
26.652    

> <interLJ>
0.000     

> <interEJ>
0.000     

> <gridLJ>
-5.665    

> <gridEL>
0.000     

> <totalE>
44.502    

> <LGFE>
-5.665  

> <LE>
-0.218  

> <SMILES>
O=C([O-])COc1c(C(=O)[O-])sc(-c2cccc(NC3CCCC3)c2)c1Br

> <atom.dprop.GFE>
-0.5278 0.0519 0.1775 0.1775 -0.2188 -1.2330 0.0000 0.0000 -0.2261 -0.1884 0.0000 -0.1558 -0.1353 0.0000 -0.0721 0.0000 -0.2513 0.0000 -0.4620 1.0610 0.8715 0.0000 0.0000 -2.7610 0.0000 0.0000 -0.1170 0.0000 -0.1442 0.0000 0.0000 -0.0796 0.0000 0.0000 -0.4782 0.0000 -0.5325 0.0000 0.0000 -0.4216 0.0000 0.0000

> <atom.prop.CLASS>
PRPC GEHC GEHC GEHC GEHC ACEC NCLA NCLA BENC BENC NCLA BENC BENC NCLA BENC NCLA BENC NCLA BRBX DMEO PRPC NCLA NCLA ACEC NCLA NCLA FORN NCLA PRPC NCLA NCLA PRPC NCLA NCLA PRPC NCLA PRPC NCLA NCLA PRPC NCLA NCLA

> <cluster_id>
1

> <rmsd_to_cluster_rep>
0.00    

> <ligRMSD>
2.18    

> <ligCOMD>
0.52    

$$$$
ptp1b_wilson_21_706
     RDKit          3D

 48 50  0  0  0  0  0  0  0  0999 V2000
   45.0212   13.3034   -1.3199 S   0  0  0  0  0  0  0  0  0  0  0  0
   44.8088   14.8304   -0.5476 C   0  0  0  0  0  0  0  0  0  0  0  0
   45.2728   14.7894    0.7431 C   0  0  0  0  0  0  0  0  0  0  0  0
   45.7419   13.5237    1.0830 C   0  0  0  0  0  0  0  0  0  0  0  0
   45.7089   12.5661    0.0869 C   0  0  0  0  0  0  0  0  0  0  0  0
   44.2398   15.9287   -1.4038 C   0  0  0  0  0  0  0  0  0  0  0  0
   44.8814   16.3098   -2.4229 O   0  0  0  0  0  0  0  0  0  0  0  0
   43.1308   16.3960   -1.0176 O   0  0  0  0  0  0  0  0  0  0  0  0
   45.9855   11.1098    0.0098 C   0  0  0  0  0  0  0  0  0  0  0  0
   47.1663   10.5545    0.5728 C   0  0  0  0  0  0  0  0  0  0  0  0
   47.8765   11.2019    1.0656 H   0  0  0  0  0  0  0  0  0  0  0  0
   47.4382    9.1682    0.5217 C   0  0  0  0  0  0  0  0  0  0  0  0
   46.5255    8.3224   -0.1273 C   0  0  0  0  0  0  0  0  0  0  0  0
   46.6901    7.2582   -0.1967 H   0  0  0  0  0  0  0  0  0  0  0  0
   45.3689    8.8437   -0.7047 C   0  0  0  0  0  0  0  0  0  0  0  0
   44.6716    8.1845   -1.2017 H   0  0  0  0  0  0  0  0  0  0  0  0
   45.0933   10.2093   -0.6192 C   0  0  0  0  0  0  0  0  0  0  0  0
   44.1717   10.5610   -1.0600 H   0  0  0  0  0  0  0  0  0  0  0  0
   46.3687   13.1814    2.8552 Br  0  0  0  0  0  0  0  0  0  0  0  0
   45.1807   15.8342    1.5849 O   0  0  0  0  0  0  0  0  0  0  0  0
   45.6127   17.1041    1.0619 C   0  0  0  0  0  0  0  0  0  0  0  0
   44.7310   17.6564    0.6670 H   0  0  0  0  0  0  0  0  0  0  0  0
   46.3523   16.9754    0.2385 H   0  0  0  0  0  0  0  0  0  0  0  0
   46.2739   17.9751    2.1481 C   0  0  0  0  0  0  0  0  0  0  0  0
   46.3632   17.4896    3.3065 O   0  0  0  0  0  0  0  0  0  0  0  0
   46.6722   19.1103    1.7689 O   0  0  0  0  0  0  0  0  0  0  0  0
   48.5751    8.6766    1.2142 N   0  0  0  0  0  0  0  0  0  0  0  0
   49.4691    8.8988    0.7794 H   0  0  0  0  0  0  0  0  0  0  0  0
   48.5096    5.8333    4.7379 C   0  0  0  0  0  0  0  0  0  0  0  0
   48.1428    5.2379    5.6055 H   0  0  0  0  0  0  0  0  0  0  0  0
   48.7828    6.8394    5.1277 H   0  0  0  0  0  0  0  0  0  0  0  0
   47.3640    5.9981    3.7333 C   0  0  0  0  0  0  0  0  0  0  0  0
   46.4161    6.0762    4.3161 H   0  0  0  0  0  0  0  0  0  0  0  0
   47.2817    5.1038    3.0806 H   0  0  0  0  0  0  0  0  0  0  0  0
   47.4762    7.2822    2.8966 C   0  0  0  0  0  0  0  0  0  0  0  0
   47.5957    8.1392    3.5969 H   0  0  0  0  0  0  0  0  0  0  0  0
   46.5057    7.4232    2.3667 H   0  0  0  0  0  0  0  0  0  0  0  0
   48.6081    7.3201    1.8426 C   0  0  0  0  0  0  0  0  0  0  0  0
   48.3355    6.5588    1.0771 H   0  0  0  0  0  0  0  0  0  0  0  0
   50.0246    6.9765    2.3732 C   0  0  0  0  0  0  0  0  0  0  0  0
   50.2862    7.6410    3.2236 H   0  0  0  0  0  0  0  0  0  0  0  0
   50.7595    7.1792    1.5609 H   0  0  0  0  0  0  0  0  0  0  0  0
   50.2143    5.5057    2.7800 C   0  0  0  0  0  0  0  0  0  0  0  0
   51.2933    5.2436    2.6910 H   0  0  0  0  0  0  0  0  0  0  0  0
   49.6650    4.8723    2.0479 H   0  0  0  0  0  0  0  0  0  0  0  0
   49.7672    5.1340    4.2037 C   0  0  0  0  0  0  0  0  0  0  0  0
   50.5983    5.3643    4.9092 H   0  0  0  0  0  0  0  0  0  0  0  0
   49.6094    4.0321    4.2314 H   0  0  0  0  0  0  0  0  0  0  0  0
  1  2  1  0
  1  5  1  0
  2  3  2  0
  2  6  1  0
  3  4  1  0
  3 20  1  0
  4  5  2  0
  4 19  1  0
  5  9  1  0
  6  7  2  0
  6  8  1  0
  9 10  2  0
  9 17  1  0
 10 11  1  0
 10 12  1  0
 12 13  2  0
 12 27  1  0
 13 14  1  0
 13 15  1  0
 15 16  1  0
 15 17  2  0
 17 18  1  0
 20 21  1  0
 21 22  1  0
 21 23  1  0
 21 24  1  0
 24 25  2  0
 24 26  1  0
 27 28  1  0
 27 38  1  0
 29 30  1  0
 29 31  1  0
 29 32  1  0
 29 46  1  0
 32 33  1  0
 32 34  1  0
 32 35  1  0
 35 36  1  0
 35 37  1  0
 35 38  1  0
 38 39  1  0
 38 40  1  0
 40 41  1  0
 40 42  1  0
 40 43  1  0
 43 44  1  0
 43 45  1  0
 43 46  1  0
 46 47  1  0
 46 48  1  0
M  CHG  2   8  -1  26  -1
M  END
> <intraLJ>
12.724    

> <intraEL>
7.919     

> <intraDihe>
28.073    

> <interLJ>
0.000     

> <interEJ>
0.000     

> <gridLJ>
-5.847    

> <gridEL>
0.000     

> <totalE>
42.870    

> <LGFE>
-5.847  

> <LE>
-0.209  

> <SMILES>
O=C([O-])COc1c(C(=O)[O-])sc(-c2cccc(NC3CCCCCC3)c2)c1Br

> <atom.dprop.GFE>
-0.2361 0.0793 0.1775 0.1775 -0.0556 -0.5180 0.0000 0.0000 -0.2320 -0.2149 0.0000 -0.0994 -0.1413 0.0000 -0.1413 0.0000 -0.2154 0.0000 -0.4620 1.0610 0.8715 0.0000 0.0000 -2.6910 0.0000 0.0000 -0.2580 0.0000 -0.2807 0.0000 0.0000 -0.6520 0.0000 0.0000 -0.5375 0.0000 0.0000 -0.4782 0.0000 -0.3347 0.0000 0.0000 -0.4216 0.0000 0.0000 -0.2438 0.0000 0.0000

> <atom.prop.CLASS>
PRPC GEHC GEHC GEHC GEHC ACEC NCLA NCLA BENC BENC NCLA BENC BENC NCLA BENC NCLA BENC NCLA BRBX DMEO PRPC NCLA NCLA ACEC NCLA NCLA FORN NCLA PRPC NCLA NCLA PRPC NCLA NCLA PRPC NCLA NCLA PRPC NCLA PRPC NCLA NCLA PRPC NCLA NCLA PRPC NCLA NCLA

> <cluster_id>
1

> <rmsd_to_cluster_rep>
0.00    

> <ligRMSD>
2.67    

> <ligCOMD>
0.85    

$$$$
ptp1b_wilson_22_1064
     RDKit          3D

 43 45  0  0  0  0  0  0  0  0999 V2000
   44.4651   13.6764   -0.3897 S   0  0  0  0  0  0  0  0  0  0  0  0
   44.3783   15.1371    0.5212 C   0  0  0  0  0  0  0  0  0  0  0  0
   44.9939   14.9891    1.7389 C   0  0  0  0  0  0  0  0  0  0  0  0
   45.4747   13.6973    1.9199 C   0  0  0  0  0  0  0  0  0  0  0  0
   45.2981   12.8267    0.8624 C   0  0  0  0  0  0  0  0  0  0  0  0
   43.7310   16.3037   -0.1704 C   0  0  0  0  0  0  0  0  0  0  0  0
   44.2362   16.7425   -1.2417 O   0  0  0  0  0  0  0  0  0  0  0  0
   42.7012   16.7649    0.3989 O   0  0  0  0  0  0  0  0  0  0  0  0
   45.5224   11.3839    0.6349 C   0  0  0  0  0  0  0  0  0  0  0  0
   46.7153   10.7735    1.0925 C   0  0  0  0  0  0  0  0  0  0  0  0
   47.4671   11.3675    1.5915 H   0  0  0  0  0  0  0  0  0  0  0  0
   46.9521    9.3995    0.9121 C   0  0  0  0  0  0  0  0  0  0  0  0
   46.0148    8.6206    0.2174 C   0  0  0  0  0  0  0  0  0  0  0  0
   46.1861    7.5726    0.0237 H   0  0  0  0  0  0  0  0  0  0  0  0
   44.8400    9.2015   -0.2580 C   0  0  0  0  0  0  0  0  0  0  0  0
   44.1179    8.5997   -0.7908 H   0  0  0  0  0  0  0  0  0  0  0  0
   44.5876   10.5569   -0.0340 C   0  0  0  0  0  0  0  0  0  0  0  0
   43.6557   10.9613   -0.4013 H   0  0  0  0  0  0  0  0  0  0  0  0
   46.3083   13.2034    3.5685 Br  0  0  0  0  0  0  0  0  0  0  0  0
   45.0252   15.9621    2.6657 O   0  0  0  0  0  0  0  0  0  0  0  0
   45.4332   17.2615    2.1997 C   0  0  0  0  0  0  0  0  0  0  0  0
   44.5293   17.8681    1.9687 H   0  0  0  0  0  0  0  0  0  0  0  0
   46.0589   17.1874    1.2808 H   0  0  0  0  0  0  0  0  0  0  0  0
   46.2557   18.0161    3.2623 C   0  0  0  0  0  0  0  0  0  0  0  0
   46.4874   17.4204    4.3474 O   0  0  0  0  0  0  0  0  0  0  0  0
   46.6277   19.1775    2.9403 O   0  0  0  0  0  0  0  0  0  0  0  0
   48.1677    8.8582    1.3733 N   0  0  0  0  0  0  0  0  0  0  0  0
   48.6347    9.4219    2.0816 H   0  0  0  0  0  0  0  0  0  0  0  0
   48.2062    7.4289    1.7566 C   0  0  0  0  0  0  0  0  0  0  0  0
   47.8743    6.7910    0.9069 H   0  0  0  0  0  0  0  0  0  0  0  0
   49.6575    7.0223    2.0611 C   0  0  0  0  0  0  0  0  0  0  0  0
   50.0830    7.7065    2.8292 H   0  0  0  0  0  0  0  0  0  0  0  0
   50.2769    7.1059    1.1414 H   0  0  0  0  0  0  0  0  0  0  0  0
   49.7232    5.5892    2.5972 C   0  0  0  0  0  0  0  0  0  0  0  0
   50.7735    5.3437    2.8666 H   0  0  0  0  0  0  0  0  0  0  0  0
   49.3938    4.8763    1.8097 H   0  0  0  0  0  0  0  0  0  0  0  0
   48.9030    5.4362    3.7485 O   0  0  0  0  0  0  0  0  0  0  0  0
   47.5306    5.6826    3.4659 C   0  0  0  0  0  0  0  0  0  0  0  0
   46.9363    5.5151    4.3904 H   0  0  0  0  0  0  0  0  0  0  0  0
   47.1786    4.9615    2.6960 H   0  0  0  0  0  0  0  0  0  0  0  0
   47.3055    7.1166    2.9688 C   0  0  0  0  0  0  0  0  0  0  0  0
   46.2360    7.2563    2.7019 H   0  0  0  0  0  0  0  0  0  0  0  0
   47.5495    7.8191    3.7970 H   0  0  0  0  0  0  0  0  0  0  0  0
  1  2  1  0
  1  5  1  0
  2  3  2  0
  2  6  1  0
  3  4  1  0
  3 20  1  0
  4  5  2  0
  4 19  1  0
  5  9  1  0
  6  7  2  0
  6  8  1  0
  9 10  2  0
  9 17  1  0
 10 11  1  0
 10 12  1  0
 12 13  2  0
 12 27  1  0
 13 14  1  0
 13 15  1  0
 15 16  1  0
 15 17  2  0
 17 18  1  0
 20 21  1  0
 21 22  1  0
 21 23  1  0
 21 24  1  0
 24 25  2  0
 24 26  1  0
 27 28  1  0
 27 29  1  0
 29 30  1  0
 29 31  1  0
 29 41  1  0
 31 32  1  0
 31 33  1  0
 31 34  1  0
 34 35  1  0
 34 36  1  0
 34 37  1  0
 37 38  1  0
 38 39  1  0
 38 40  1  0
 38 41  1  0
 41 42  1  0
 41 43  1  0
M  CHG  2   8  -1  26  -1
M  END
> <intraLJ>
14.575    

> <intraEL>
5.898     

> <intraDihe>
24.798    

> <interLJ>
0.000     

> <interEJ>
0.000     

> <gridLJ>
-5.676    

> <gridEL>
0.000     

> <totalE>
39.594    

> <LGFE>
-5.676  

> <LE>
-0.210  

> <SMILES>
O=C([O-])COc1c(C(=O)[O-])sc(-c2cccc(NC3CCOCC3)c2)c1Br

> <atom.dprop.GFE>
-0.3813 0.1775 0.4339 0.3303 -0.0699 -0.9950 0.0000 0.0000 -0.2483 -0.1884 0.0000 -0.1558 -0.1695 0.0000 -0.2268 0.0000 -0.2627 0.0000 -0.4620 1.9690 1.3443 0.0000 0.0000 -2.7610 0.0000 0.0000 -0.2580 0.0000 -0.5821 0.0000 -0.3347 0.0000 0.0000 -0.3640 0.0000 0.0000 -1.1540 -0.6520 0.0000 0.0000 -0.6660 0.0000 0.0000

> <atom.prop.CLASS>
PRPC GEHC GEHC GEHC GEHC ACEC NCLA NCLA BENC BENC NCLA BENC BENC NCLA BENC NCLA BENC NCLA BRBX DMEO PRPC NCLA NCLA ACEC NCLA NCLA FORN NCLA PRPC NCLA PRPC NCLA NCLA PRPC NCLA NCLA DMEO PRPC NCLA NCLA PRPC NCLA NCLA

> <cluster_id>
1

> <rmsd_to_cluster_rep>
0.00    

> <ligRMSD>
1.30    

> <ligCOMD>
0.90    

$$$$
ptp1b_wilson_23_2qbq_997
     RDKit          3D

 57 59  0  0  0  0  0  0  0  0999 V2000
   45.2482   12.6858   -1.2409 S   0  0  0  0  0  0  0  0  0  0  0  0
   44.8395   14.1624   -0.4499 C   0  0  0  0  0  0  0  0  0  0  0  0
   45.2518   14.1413    0.8589 C   0  0  0  0  0  0  0  0  0  0  0  0
   45.8412   12.9259    1.1948 C   0  0  0  0  0  0  0  0  0  0  0  0
   45.9534   11.9941    0.1803 C   0  0  0  0  0  0  0  0  0  0  0  0
   44.1903   15.2128   -1.3090 C   0  0  0  0  0  0  0  0  0  0  0  0
   42.9735   15.4954   -1.1220 O   0  0  0  0  0  0  0  0  0  0  0  0
   44.9414   15.7413   -2.1774 O   0  0  0  0  0  0  0  0  0  0  0  0
   46.3895   10.5783    0.0876 C   0  0  0  0  0  0  0  0  0  0  0  0
   47.5866   10.1351    0.7120 C   0  0  0  0  0  0  0  0  0  0  0  0
   48.1917   10.8390    1.2640 H   0  0  0  0  0  0  0  0  0  0  0  0
   48.0081    8.7874    0.6469 C   0  0  0  0  0  0  0  0  0  0  0  0
   47.2338    7.8690   -0.0787 C   0  0  0  0  0  0  0  0  0  0  0  0
   47.5151    6.8303   -0.1605 H   0  0  0  0  0  0  0  0  0  0  0  0
   46.0654    8.2816   -0.7166 C   0  0  0  0  0  0  0  0  0  0  0  0
   45.4747    7.5671   -1.2719 H   0  0  0  0  0  0  0  0  0  0  0  0
   45.6396    9.6072   -0.6176 C   0  0  0  0  0  0  0  0  0  0  0  0
   44.7141    9.8719   -1.1081 H   0  0  0  0  0  0  0  0  0  0  0  0
   46.4280   12.6116    2.9858 Br  0  0  0  0  0  0  0  0  0  0  0  0
   45.0120   15.1500    1.7154 O   0  0  0  0  0  0  0  0  0  0  0  0
   45.3008   16.4732    1.2266 C   0  0  0  0  0  0  0  0  0  0  0  0
   44.3769   16.9104    0.7867 H   0  0  0  0  0  0  0  0  0  0  0  0
   46.0949   16.4547    0.4453 H   0  0  0  0  0  0  0  0  0  0  0  0
   45.7807   17.4076    2.3545 C   0  0  0  0  0  0  0  0  0  0  0  0
   45.8989   16.9134    3.5067 O   0  0  0  0  0  0  0  0  0  0  0  0
   46.0161   18.5987    2.0125 O   0  0  0  0  0  0  0  0  0  0  0  0
   49.1458    8.3965    1.3980 N   0  0  0  0  0  0  0  0  0  0  0  0
   50.0342    8.7376    1.0346 H   0  0  0  0  0  0  0  0  0  0  0  0
   49.5538    5.1063    4.2145 C   0  0  0  0  0  0  0  0  0  0  0  0
   49.6148    4.0536    4.5603 H   0  0  0  0  0  0  0  0  0  0  0  0
   49.6190    5.7525    5.1202 H   0  0  0  0  0  0  0  0  0  0  0  0
   48.1473    5.3708    3.6013 C   0  0  0  0  0  0  0  0  0  0  0  0
   47.1111    5.3793    4.7490 C   0  0  0  0  0  0  0  0  0  0  0  0
   47.1005    4.3970    5.2661 H   0  0  0  0  0  0  0  0  0  0  0  0
   46.0949    5.5805    4.3492 H   0  0  0  0  0  0  0  0  0  0  0  0
   47.3582    6.1670    5.4912 H   0  0  0  0  0  0  0  0  0  0  0  0
   47.7169    4.2639    2.6119 C   0  0  0  0  0  0  0  0  0  0  0  0
   47.8142    3.2650    3.0867 H   0  0  0  0  0  0  0  0  0  0  0  0
   48.3207    4.2786    1.6862 H   0  0  0  0  0  0  0  0  0  0  0  0
   46.6546    4.4093    2.3214 H   0  0  0  0  0  0  0  0  0  0  0  0
   48.1192    6.7617    2.9237 C   0  0  0  0  0  0  0  0  0  0  0  0
   48.1526    7.5333    3.7255 H   0  0  0  0  0  0  0  0  0  0  0  0
   47.1529    6.8762    2.3853 H   0  0  0  0  0  0  0  0  0  0  0  0
   49.2916    7.0180    1.9539 C   0  0  0  0  0  0  0  0  0  0  0  0
   49.2053    6.2810    1.1272 H   0  0  0  0  0  0  0  0  0  0  0  0
   50.6425    6.8296    2.6808 C   0  0  0  0  0  0  0  0  0  0  0  0
   50.7165    7.6061    3.4751 H   0  0  0  0  0  0  0  0  0  0  0  0
   51.4866    6.9903    1.9776 H   0  0  0  0  0  0  0  0  0  0  0  0
   50.8093    5.4450    3.3557 C   0  0  0  0  0  0  0  0  0  0  0  0
   52.0318    5.5093    4.3009 C   0  0  0  0  0  0  0  0  0  0  0  0
   51.8805    6.2840    5.0815 H   0  0  0  0  0  0  0  0  0  0  0  0
   52.9489    5.7623    3.7285 H   0  0  0  0  0  0  0  0  0  0  0  0
   52.1846    4.5295    4.8002 H   0  0  0  0  0  0  0  0  0  0  0  0
   51.1110    4.3615    2.2965 C   0  0  0  0  0  0  0  0  0  0  0  0
   52.0970    4.5596    1.8246 H   0  0  0  0  0  0  0  0  0  0  0  0
   51.1470    3.3582    2.7706 H   0  0  0  0  0  0  0  0  0  0  0  0
   50.3533    4.3495    1.4916 H   0  0  0  0  0  0  0  0  0  0  0  0
  1  2  1  0
  1  5  1  0
  2  3  2  0
  2  6  1  0
  3  4  1  0
  3 20  1  0
  4  5  2  0
  4 19  1  0
  5  9  1  0
  6  7  2  0
  6  8  1  0
  9 10  2  0
  9 17  1  0
 10 11  1  0
 10 12  1  0
 12 13  2  0
 12 27  1  0
 13 14  1  0
 13 15  1  0
 15 16  1  0
 15 17  2  0
 17 18  1  0
 20 21  1  0
 21 22  1  0
 21 23  1  0
 21 24  1  0
 24 25  2  0
 24 26  1  0
 27 28  1  0
 27 44  1  0
 29 30  1  0
 29 31  1  0
 29 32  1  0
 29 49  1  0
 32 33  1  0
 32 37  1  0
 32 41  1  0
 33 34  1  0
 33 35  1  0
 33 36  1  0
 37 38  1  0
 37 39  1  0
 37 40  1  0
 41 42  1  0
 41 43  1  0
 41 44  1  0
 44 45  1  0
 44 46  1  0
 46 47  1  0
 46 48  1  0
 46 49  1  0
 49 50  1  0
 49 54  1  0
 50 51  1  0
 50 52  1  0
 50 53  1  0
 54 55  1  0
 54 56  1  0
 54 57  1  0
M  CHG  2   8  -1  26  -1
M  END
> <intraLJ>
13.060    

> <intraEL>
-0.660    

> <intraDihe>
22.829    

> <interLJ>
0.000     

> <interEJ>
0.000     

> <gridLJ>
-6.828    

> <gridEL>
0.000     

> <totalE>
28.401    

> <LGFE>
-6.828  

> <LE>
-0.220  

> <SMILES>
CC1(C)CC(Nc2cccc(-c3sc(C(=O)[O-])c(OCC(=O)[O-])c3Br)c2)CC(C)(C)C1

> <atom.dprop.GFE>
-0.5335 -0.0456 0.1032 -0.0080 -0.1295 -0.5180 0.0000 0.0000 -0.2149 -0.0994 0.0000 -0.0972 -0.1456 0.0000 -0.1413 0.0000 -0.1890 0.0000 0.1600 0.5500 0.8715 0.0000 0.0000 -2.6910 0.0000 0.0000 -0.2580 0.0000 -0.2438 0.0000 0.0000 -0.6520 -0.3536 0.0000 0.0000 0.0000 -0.4662 0.0000 0.0000 0.0000 -0.6660 0.0000 0.0000 -0.5318 0.0000 -0.1442 0.0000 0.0000 -0.2481 0.0143 0.0000 0.0000 0.0000 -0.1502 0.0000 0.0000 0.0000

> <atom.prop.CLASS>
PRPC GEHC GEHC GEHC GEHC ACEC NCLA NCLA BENC BENC NCLA BENC BENC NCLA BENC NCLA BENC NCLA BRBX DMEO PRPC NCLA NCLA ACEC NCLA NCLA FORN NCLA PRPC NCLA NCLA PRPC PRPC NCLA NCLA NCLA PRPC NCLA NCLA NCLA PRPC NCLA NCLA PRPC NCLA PRPC NCLA NCLA PRPC PRPC NCLA NCLA NCLA PRPC NCLA NCLA NCLA

> <cluster_id>
1

> <rmsd_to_cluster_rep>
0.00    

> <ligRMSD>
3.04    

> <ligCOMD>
1.13    

$$$$
ptp1b_wilson_26_155
     RDKit          3D

 44 46  0  0  0  0  0  0  0  0999 V2000
   47.5684   14.6702    0.7284 S   0  0  0  0  0  0  0  0  0  0  0  0
   46.1483   15.1136    1.6013 C   0  0  0  0  0  0  0  0  0  0  0  0
   45.4905   13.9979    2.0515 C   0  0  0  0  0  0  0  0  0  0  0  0
   46.1226   12.8273    1.6452 C   0  0  0  0  0  0  0  0  0  0  0  0
   47.2835   12.9773    0.9107 C   0  0  0  0  0  0  0  0  0  0  0  0
   45.9219   16.5884    1.7950 C   0  0  0  0  0  0  0  0  0  0  0  0
   46.7869   17.2665    2.4172 O   0  0  0  0  0  0  0  0  0  0  0  0
   44.8481   17.0409    1.3052 O   0  0  0  0  0  0  0  0  0  0  0  0
   48.1837   12.0675    0.1628 C   0  0  0  0  0  0  0  0  0  0  0  0
   48.5864   10.8455    0.7549 C   0  0  0  0  0  0  0  0  0  0  0  0
   48.2633   10.6094    1.7589 H   0  0  0  0  0  0  0  0  0  0  0  0
   49.4134    9.9227    0.0849 C   0  0  0  0  0  0  0  0  0  0  0  0
   49.9000   10.2450   -1.1914 C   0  0  0  0  0  0  0  0  0  0  0  0
   50.5784    9.5776   -1.7026 H   0  0  0  0  0  0  0  0  0  0  0  0
   49.5462   11.4616   -1.7892 C   0  0  0  0  0  0  0  0  0  0  0  0
   49.9308   11.7127   -2.7670 H   0  0  0  0  0  0  0  0  0  0  0  0
   48.6852   12.3494   -1.1317 C   0  0  0  0  0  0  0  0  0  0  0  0
   48.4195   13.2669   -1.6363 H   0  0  0  0  0  0  0  0  0  0  0  0
   45.3429   11.1338    2.0591 Br  0  0  0  0  0  0  0  0  0  0  0  0
   44.3240   14.0604    2.7165 O   0  0  0  0  0  0  0  0  0  0  0  0
   44.2982   14.9803    3.8222 C   0  0  0  0  0  0  0  0  0  0  0  0
   43.8485   15.9411    3.4854 H   0  0  0  0  0  0  0  0  0  0  0  0
   45.3234   15.1841    4.2091 H   0  0  0  0  0  0  0  0  0  0  0  0
   43.4598   14.4524    5.0012 C   0  0  0  0  0  0  0  0  0  0  0  0
   42.9226   13.3201    4.8794 O   0  0  0  0  0  0  0  0  0  0  0  0
   43.3929   15.2221    5.9982 O   0  0  0  0  0  0  0  0  0  0  0  0
   49.9038    8.8221    0.8317 N   0  0  0  0  0  0  0  0  0  0  0  0
   50.9158    8.7353    0.9022 H   0  0  0  0  0  0  0  0  0  0  0  0
   49.2012    8.1368    1.9545 C   0  0  0  0  0  0  0  0  0  0  0  0
   49.0196    8.8419    2.7926 H   0  0  0  0  0  0  0  0  0  0  0  0
   47.8421    7.6111    1.4359 C   0  0  0  0  0  0  0  0  0  0  0  0
   48.0012    7.0711    0.4745 H   0  0  0  0  0  0  0  0  0  0  0  0
   47.1698    8.4725    1.2298 H   0  0  0  0  0  0  0  0  0  0  0  0
   47.1405    6.6475    2.4062 C   0  0  0  0  0  0  0  0  0  0  0  0
   46.2075    6.2645    1.9370 H   0  0  0  0  0  0  0  0  0  0  0  0
   46.8662    7.1851    3.3399 H   0  0  0  0  0  0  0  0  0  0  0  0
   48.0292    5.5085    2.7316 N   0  0  0  0  0  0  0  0  0  0  0  0
   47.5464    4.8227    3.3112 H   0  0  0  0  0  0  0  0  0  0  0  0
   49.2663    5.9879    3.3935 C   0  0  0  0  0  0  0  0  0  0  0  0
   49.9078    5.1153    3.6473 H   0  0  0  0  0  0  0  0  0  0  0  0
   49.0007    6.5100    4.3385 H   0  0  0  0  0  0  0  0  0  0  0  0
   50.0478    6.9465    2.4744 C   0  0  0  0  0  0  0  0  0  0  0  0
   50.9383    7.3318    3.0158 H   0  0  0  0  0  0  0  0  0  0  0  0
   50.4123    6.3551    1.6037 H   0  0  0  0  0  0  0  0  0  0  0  0
  1  2  1  0
  1  5  1  0
  2  3  2  0
  2  6  1  0
  3  4  1  0
  3 20  1  0
  4  5  2  0
  4 19  1  0
  5  9  1  0
  6  7  2  0
  6  8  1  0
  9 10  2  0
  9 17  1  0
 10 11  1  0
 10 12  1  0
 12 13  2  0
 12 27  1  0
 13 14  1  0
 13 15  1  0
 15 16  1  0
 15 17  2  0
 17 18  1  0
 20 21  1  0
 21 22  1  0
 21 23  1  0
 21 24  1  0
 24 25  2  0
 24 26  1  0
 27 28  1  0
 27 29  1  0
 29 30  1  0
 29 31  1  0
 29 42  1  0
 31 32  1  0
 31 33  1  0
 31 34  1  0
 34 35  1  0
 34 36  1  0
 34 37  1  0
 37 38  1  0
 37 39  1  0
 39 40  1  0
 39 41  1  0
 39 42  1  0
 42 43  1  0
 42 44  1  0
M  CHG  2   8  -1  26  -1
M  END
> <intraLJ>
13.302    

> <intraEL>
4.853     

> <intraDihe>
23.925    

> <interLJ>
0.000     

> <interEJ>
0.000     

> <gridLJ>
-5.413    

> <gridEL>
0.000     

> <totalE>
36.668    

> <LGFE>
-5.413  

> <LE>
-0.200  

> <SMILES>
O=C([O-])COc1c(C(=O)[O-])sc(-c2cccc(NC3CCNCC3)c2)c1Br

> <atom.dprop.GFE>
0.2631 0.3420 0.3303 -0.0080 0.1885 -2.0110 0.0000 0.0000 -0.0867 0.0755 0.0000 0.0261 0.0309 0.0000 -0.0190 0.0000 0.0089 0.0000 0.2140 -0.2020 1.3443 0.0000 0.0000 -2.7910 0.0000 0.0000 -0.2060 0.0000 -0.4782 0.0000 -0.4825 0.0000 0.0000 -0.5818 0.0000 0.0000 -0.4590 0.0000 -0.5764 0.0000 0.0000 -0.3347 0.0000 0.0000

> <atom.prop.CLASS>
PRPC GEHC GEHC GEHC GEHC ACEC NCLA NCLA BENC BENC NCLA BENC BENC NCLA BENC NCLA BENC NCLA BRBX DMEO PRPC NCLA NCLA ACEC NCLA NCLA FORN NCLA PRPC NCLA PRPC NCLA NCLA PRPC NCLA NCLA FORN NCLA PRPC NCLA NCLA PRPC NCLA NCLA

> <cluster_id>
1

> <rmsd_to_cluster_rep>
0.00    

> <ligRMSD>
3.28    

> <ligCOMD>
0.48    

$$$$
ptp1b_wilson_27_122
     RDKit          3D

 49 51  0  0  0  0  0  0  0  0999 V2000
   44.2045   13.0748   -0.8465 S   0  0  0  0  0  0  0  0  0  0  0  0
   44.0327   14.6870   -0.2583 C   0  0  0  0  0  0  0  0  0  0  0  0
   44.7573   14.8610    0.8929 C   0  0  0  0  0  0  0  0  0  0  0  0
   45.3891   13.6860    1.2871 C   0  0  0  0  0  0  0  0  0  0  0  0
   45.2166   12.5887    0.4646 C   0  0  0  0  0  0  0  0  0  0  0  0
   43.2216   15.6217   -1.1141 C   0  0  0  0  0  0  0  0  0  0  0  0
   42.9057   15.2660   -2.2841 O   0  0  0  0  0  0  0  0  0  0  0  0
   42.9157   16.7229   -0.5742 O   0  0  0  0  0  0  0  0  0  0  0  0
   45.5568   11.1481    0.5393 C   0  0  0  0  0  0  0  0  0  0  0  0
   46.8816   10.7637    0.8570 C   0  0  0  0  0  0  0  0  0  0  0  0
   47.6346   11.5247    1.0065 H   0  0  0  0  0  0  0  0  0  0  0  0
   47.2629    9.4139    0.9736 C   0  0  0  0  0  0  0  0  0  0  0  0
   46.3158    8.4101    0.7201 C   0  0  0  0  0  0  0  0  0  0  0  0
   46.5989    7.3683    0.7570 H   0  0  0  0  0  0  0  0  0  0  0  0
   45.0050    8.7598    0.3706 C   0  0  0  0  0  0  0  0  0  0  0  0
   44.2786    7.9873    0.1643 H   0  0  0  0  0  0  0  0  0  0  0  0
   44.6262   10.1068    0.3016 C   0  0  0  0  0  0  0  0  0  0  0  0
   43.6003   10.3336    0.0503 H   0  0  0  0  0  0  0  0  0  0  0  0
   46.3817   13.6416    2.9185 Br  0  0  0  0  0  0  0  0  0  0  0  0
   44.7542   16.0120    1.5873 O   0  0  0  0  0  0  0  0  0  0  0  0
   46.0219   16.6880    1.6630 C   0  0  0  0  0  0  0  0  0  0  0  0
   46.0244   17.5384    0.9449 H   0  0  0  0  0  0  0  0  0  0  0  0
   46.8653   16.0052    1.4088 H   0  0  0  0  0  0  0  0  0  0  0  0
   46.2965   17.2536    3.0690 C   0  0  0  0  0  0  0  0  0  0  0  0
   45.4236   17.0662    3.9570 O   0  0  0  0  0  0  0  0  0  0  0  0
   47.3942   17.8612    3.1988 O   0  0  0  0  0  0  0  0  0  0  0  0
   48.6432    9.1481    1.1412 N   0  0  0  0  0  0  0  0  0  0  0  0
   49.2510    9.9425    1.3334 H   0  0  0  0  0  0  0  0  0  0  0  0
   49.2448    7.8372    1.5084 C   0  0  0  0  0  0  0  0  0  0  0  0
   48.8382    7.0274    0.8654 H   0  0  0  0  0  0  0  0  0  0  0  0
   50.7789    7.9070    1.3015 C   0  0  0  0  0  0  0  0  0  0  0  0
   51.1705    8.8324    1.7816 H   0  0  0  0  0  0  0  0  0  0  0  0
   51.0076    7.9607    0.2155 H   0  0  0  0  0  0  0  0  0  0  0  0
   51.5180    6.7180    1.9280 C   0  0  0  0  0  0  0  0  0  0  0  0
   52.6132    6.8412    1.7678 H   0  0  0  0  0  0  0  0  0  0  0  0
   51.2101    5.7757    1.4244 H   0  0  0  0  0  0  0  0  0  0  0  0
   51.1478    6.6558    3.3397 N   0  0  0  0  0  0  0  0  0  0  0  0
   49.7341    6.3421    3.5497 C   0  0  0  0  0  0  0  0  0  0  0  0
   49.4638    6.1794    4.6150 H   0  0  0  0  0  0  0  0  0  0  0  0
   49.4825    5.4090    2.9994 H   0  0  0  0  0  0  0  0  0  0  0  0
   48.9031    7.5063    2.9876 C   0  0  0  0  0  0  0  0  0  0  0  0
   47.8205    7.2760    3.0804 H   0  0  0  0  0  0  0  0  0  0  0  0
   49.1199    8.3989    3.6173 H   0  0  0  0  0  0  0  0  0  0  0  0
   52.0673    6.9225    4.3160 C   0  0  0  0  0  0  0  0  0  0  0  0
   51.6287    6.9143    5.7457 C   0  0  0  0  0  0  0  0  0  0  0  0
   51.2561    5.9074    6.0315 H   0  0  0  0  0  0  0  0  0  0  0  0
   50.8228    7.6619    5.9079 H   0  0  0  0  0  0  0  0  0  0  0  0
   52.4847    7.1725    6.4067 H   0  0  0  0  0  0  0  0  0  0  0  0
   53.2413    7.1910    4.0682 O   0  0  0  0  0  0  0  0  0  0  0  0
  1  2  1  0
  1  5  1  0
  2  3  2  0
  2  6  1  0
  3  4  1  0
  3 20  1  0
  4  5  2  0
  4 19  1  0
  5  9  1  0
  6  7  2  0
  6  8  1  0
  9 10  2  0
  9 17  1  0
 10 11  1  0
 10 12  1  0
 12 13  2  0
 12 27  1  0
 13 14  1  0
 13 15  1  0
 15 16  1  0
 15 17  2  0
 17 18  1  0
 20 21  1  0
 21 22  1  0
 21 23  1  0
 21 24  1  0
 24 25  2  0
 24 26  1  0
 27 28  1  0
 27 29  1  0
 29 30  1  0
 29 31  1  0
 29 41  1  0
 31 32  1  0
 31 33  1  0
 31 34  1  0
 34 35  1  0
 34 36  1  0
 34 37  1  0
 37 38  1  0
 37 44  1  0
 38 39  1  0
 38 40  1  0
 38 41  1  0
 41 42  1  0
 41 43  1  0
 44 45  1  0
 44 49  2  0
 45 46  1  0
 45 47  1  0
 45 48  1  0
M  CHG  2   8  -1  26  -1
M  END
> <intraLJ>
14.831    

> <intraEL>
3.171     

> <intraDihe>
28.032    

> <interLJ>
0.000     

> <interEJ>
0.000     

> <gridLJ>
-4.904    

> <gridEL>
0.000     

> <totalE>
41.131    

> <LGFE>
-4.904  

> <LE>
-0.163  

> <SMILES>
CC(=O)N1CCC(Nc2cccc(-c3sc(C(=O)[O-])c(OCC(=O)[O-])c3Br)c2)CC1

> <atom.dprop.GFE>
-0.5278 0.0519 0.4339 0.1775 -0.2188 -0.9440 0.0000 0.0000 -0.2320 -0.1884 0.0000 -0.1558 -0.1413 0.0000 -0.1358 0.0000 -0.2513 0.0000 -0.4620 1.0610 0.8715 0.0000 0.0000 -2.7610 0.0000 0.0000 -0.2580 0.0000 -0.3387 0.0000 0.0143 0.0000 0.0000 0.0470 0.0000 0.0000 0.1941 -0.3393 0.0000 0.0000 -0.3973 0.0000 0.0000 0.0000 0.5038 0.0000 0.0000 0.0000 -0.9080

> <atom.prop.CLASS>
PRPC GEHC GEHC GEHC GEHC ACEC NCLA NCLA BENC BENC NCLA BENC BENC NCLA BENC NCLA BENC NCLA BRBX DMEO PRPC NCLA NCLA ACEC NCLA NCLA FORN NCLA PRPC NCLA PRPC NCLA NCLA PRPC NCLA NCLA GEHC PRPC NCLA NCLA PRPC NCLA NCLA NCLA PRPC NCLA NCLA NCLA FORO

> <cluster_id>
1

> <rmsd_to_cluster_rep>
0.00    

> <ligRMSD>
1.81    

> <ligCOMD>
0.68    

$$$$
ptp1b_wilson_28_1213
     RDKit          3D

 50 52  0  0  0  0  0  0  0  0999 V2000
   46.7397   14.5497   -0.2448 S   0  0  0  0  0  0  0  0  0  0  0  0
   45.5161   14.9572    0.9006 C   0  0  0  0  0  0  0  0  0  0  0  0
   45.2729   13.9029    1.7431 C   0  0  0  0  0  0  0  0  0  0  0  0
   46.0433   12.7920    1.4147 C   0  0  0  0  0  0  0  0  0  0  0  0
   46.9184   12.9410    0.3553 C   0  0  0  0  0  0  0  0  0  0  0  0
   45.0007   16.3698    0.8458 C   0  0  0  0  0  0  0  0  0  0  0  0
   45.8264   17.3233    0.7821 O   0  0  0  0  0  0  0  0  0  0  0  0
   43.7426   16.4890    0.8714 O   0  0  0  0  0  0  0  0  0  0  0  0
   47.7997   12.0375   -0.4221 C   0  0  0  0  0  0  0  0  0  0  0  0
   48.6266   11.1147    0.2632 C   0  0  0  0  0  0  0  0  0  0  0  0
   48.6300   11.1054    1.3440 H   0  0  0  0  0  0  0  0  0  0  0  0
   49.4639   10.2086   -0.4154 C   0  0  0  0  0  0  0  0  0  0  0  0
   49.5214   10.2500   -1.8172 C   0  0  0  0  0  0  0  0  0  0  0  0
   50.1922    9.5974   -2.3566 H   0  0  0  0  0  0  0  0  0  0  0  0
   48.7396   11.1750   -2.5217 C   0  0  0  0  0  0  0  0  0  0  0  0
   48.7928   11.2139   -3.6000 H   0  0  0  0  0  0  0  0  0  0  0  0
   47.8773   12.0407   -1.8365 C   0  0  0  0  0  0  0  0  0  0  0  0
   47.2755   12.7237   -2.4182 H   0  0  0  0  0  0  0  0  0  0  0  0
   45.8155   11.1589    2.3788 Br  0  0  0  0  0  0  0  0  0  0  0  0
   44.3258   13.9372    2.6964 O   0  0  0  0  0  0  0  0  0  0  0  0
   44.4296   15.0294    3.6270 C   0  0  0  0  0  0  0  0  0  0  0  0
   43.6120   15.7575    3.4265 H   0  0  0  0  0  0  0  0  0  0  0  0
   45.4068   15.5567    3.5313 H   0  0  0  0  0  0  0  0  0  0  0  0
   44.3009   14.5625    5.0890 C   0  0  0  0  0  0  0  0  0  0  0  0
   44.1590   13.3294    5.3005 O   0  0  0  0  0  0  0  0  0  0  0  0
   44.3534   15.4805    5.9525 O   0  0  0  0  0  0  0  0  0  0  0  0
   50.3603    9.4447    0.3730 N   0  0  0  0  0  0  0  0  0  0  0  0
   51.3344    9.4214    0.0767 H   0  0  0  0  0  0  0  0  0  0  0  0
   50.1687    9.0599    1.7999 C   0  0  0  0  0  0  0  0  0  0  0  0
   50.0082    9.9630    2.4267 H   0  0  0  0  0  0  0  0  0  0  0  0
   48.9206    8.1458    1.9222 C   0  0  0  0  0  0  0  0  0  0  0  0
   48.9907    7.3321    1.1657 H   0  0  0  0  0  0  0  0  0  0  0  0
   48.0040    8.7363    1.7081 H   0  0  0  0  0  0  0  0  0  0  0  0
   48.7982    7.4852    3.3033 C   0  0  0  0  0  0  0  0  0  0  0  0
   47.9111    6.8152    3.3188 H   0  0  0  0  0  0  0  0  0  0  0  0
   48.6436    8.2667    4.0786 H   0  0  0  0  0  0  0  0  0  0  0  0
   50.0471    6.7790    3.5774 N   0  0  0  0  0  0  0  0  0  0  0  0
   51.2171    7.6453    3.6798 C   0  0  0  0  0  0  0  0  0  0  0  0
   52.1356    7.0873    3.9696 H   0  0  0  0  0  0  0  0  0  0  0  0
   51.0318    8.4191    4.4561 H   0  0  0  0  0  0  0  0  0  0  0  0
   51.4360    8.3226    2.3172 C   0  0  0  0  0  0  0  0  0  0  0  0
   52.2851    9.0356    2.3840 H   0  0  0  0  0  0  0  0  0  0  0  0
   51.7122    7.5255    1.5906 H   0  0  0  0  0  0  0  0  0  0  0  0
   50.1866    5.4097    3.5939 C   0  0  0  0  0  0  0  0  0  0  0  0
   51.2445    4.8081    3.7769 O   0  0  0  0  0  0  0  0  0  0  0  0
   49.0065    4.7691    3.3847 O   0  0  0  0  0  0  0  0  0  0  0  0
   49.0627    3.3322    3.3820 C   0  0  0  0  0  0  0  0  0  0  0  0
   48.0447    2.9224    3.2088 H   0  0  0  0  0  0  0  0  0  0  0  0
   49.4306    2.9507    4.3601 H   0  0  0  0  0  0  0  0  0  0  0  0
   49.7293    2.9660    2.5703 H   0  0  0  0  0  0  0  0  0  0  0  0
  1  2  1  0
  1  5  1  0
  2  3  2  0
  2  6  1  0
  3  4  1  0
  3 20  1  0
  4  5  2  0
  4 19  1  0
  5  9  1  0
  6  7  2  0
  6  8  1  0
  9 10  2  0
  9 17  1  0
 10 11  1  0
 10 12  1  0
 12 13  2  0
 12 27  1  0
 13 14  1  0
 13 15  1  0
 15 16  1  0
 15 17  2  0
 17 18  1  0
 20 21  1  0
 21 22  1  0
 21 23  1  0
 21 24  1  0
 24 25  2  0
 24 26  1  0
 27 28  1  0
 27 29  1  0
 29 30  1  0
 29 31  1  0
 29 41  1  0
 31 32  1  0
 31 33  1  0
 31 34  1  0
 34 35  1  0
 34 36  1  0
 34 37  1  0
 37 38  1  0
 37 44  1  0
 38 39  1  0
 38 40  1  0
 38 41  1  0
 41 42  1  0
 41 43  1  0
 44 45  2  0
 44 46  1  0
 46 47  1  0
 47 48  1  0
 47 49  1  0
 47 50  1  0
M  CHG  2   8  -1  26  -1
M  END
> <intraLJ>
14.669    

> <intraEL>
4.718     

> <intraDihe>
30.811    

> <interLJ>
0.000     

> <interEJ>
0.000     

> <gridLJ>
-5.046    

> <gridEL>
0.000     

> <totalE>
45.151    

> <LGFE>
-5.046  

> <LE>
-0.163  

> <SMILES>
COC(=O)N1CCC(Nc2cccc(-c3sc(C(=O)[O-])c(OCC(=O)[O-])c3Br)c2)CC1

> <atom.dprop.GFE>
0.0526 0.3420 0.1032 -0.0080 0.0826 -1.2720 0.0000 0.0000 -0.0728 -0.0033 0.0000 0.0309 -0.0063 0.0000 -0.0204 0.0000 -0.0511 0.0000 0.2140 -0.2020 1.3443 0.0000 0.0000 -3.2450 0.0000 0.0000 0.0270 0.0000 -0.1209 0.0000 -0.4782 0.0000 0.0000 -0.3973 0.0000 0.0000 0.0519 0.0143 0.0000 0.0000 -0.0553 0.0000 0.0000 0.0000 -0.3830 -0.7070 -0.2864 0.0000 0.0000 0.0000

> <atom.prop.CLASS>
PRPC GEHC GEHC GEHC GEHC ACEC NCLA NCLA BENC BENC NCLA BENC BENC NCLA BENC NCLA BENC NCLA BRBX DMEO PRPC NCLA NCLA ACEC NCLA NCLA FORN NCLA PRPC NCLA PRPC NCLA NCLA PRPC NCLA NCLA GEHC PRPC NCLA NCLA PRPC NCLA NCLA NCLA FORO DMEO PRPC NCLA NCLA NCLA

> <cluster_id>
1

> <rmsd_to_cluster_rep>
0.00    

> <ligRMSD>
3.17    

> <ligCOMD>
0.51    

$$$$
ptp1b_wilson_29_105
     RDKit          3D

 61 64  0  0  0  0  0  0  0  0999 V2000
   44.4558   13.1126   -1.1608 S   0  0  0  0  0  0  0  0  0  0  0  0
   44.3904   14.6954   -0.4786 C   0  0  0  0  0  0  0  0  0  0  0  0
   45.0211   14.7233    0.7387 C   0  0  0  0  0  0  0  0  0  0  0  0
   45.4962   13.4677    1.1021 C   0  0  0  0  0  0  0  0  0  0  0  0
   45.2891   12.4459    0.1952 C   0  0  0  0  0  0  0  0  0  0  0  0
   43.7601   15.7606   -1.3338 C   0  0  0  0  0  0  0  0  0  0  0  0
   44.2763   16.0353   -2.4532 O   0  0  0  0  0  0  0  0  0  0  0  0
   42.7337   16.3121   -0.8436 O   0  0  0  0  0  0  0  0  0  0  0  0
   45.4725   10.9760    0.2007 C   0  0  0  0  0  0  0  0  0  0  0  0
   46.6824   10.4336    0.6958 C   0  0  0  0  0  0  0  0  0  0  0  0
   47.4669   11.0988    1.0282 H   0  0  0  0  0  0  0  0  0  0  0  0
   46.9120    9.0463    0.7575 C   0  0  0  0  0  0  0  0  0  0  0  0
   45.9308    8.1685    0.2715 C   0  0  0  0  0  0  0  0  0  0  0  0
   46.1052    7.1024    0.2653 H   0  0  0  0  0  0  0  0  0  0  0  0
   44.7361    8.6772   -0.2544 C   0  0  0  0  0  0  0  0  0  0  0  0
   43.9865    8.0013   -0.6393 H   0  0  0  0  0  0  0  0  0  0  0  0
   44.5020   10.0584   -0.2717 C   0  0  0  0  0  0  0  0  0  0  0  0
   43.5598   10.4099   -0.6662 H   0  0  0  0  0  0  0  0  0  0  0  0
   46.3245   13.2217    2.8055 Br  0  0  0  0  0  0  0  0  0  0  0  0
   45.0690   15.8243    1.5080 O   0  0  0  0  0  0  0  0  0  0  0  0
   45.5114   17.0184    0.8390 C   0  0  0  0  0  0  0  0  0  0  0  0
   44.6236   17.5743    0.4625 H   0  0  0  0  0  0  0  0  0  0  0  0
   46.1750   16.7820   -0.0247 H   0  0  0  0  0  0  0  0  0  0  0  0
   46.2951   17.9565    1.7755 C   0  0  0  0  0  0  0  0  0  0  0  0
   46.4801   17.5813    2.9631 O   0  0  0  0  0  0  0  0  0  0  0  0
   46.6866   19.0338    1.2488 O   0  0  0  0  0  0  0  0  0  0  0  0
   48.2143    8.6201    1.1169 N   0  0  0  0  0  0  0  0  0  0  0  0
   48.9332    9.3386    1.1840 H   0  0  0  0  0  0  0  0  0  0  0  0
   48.5439    7.3901    1.8903 C   0  0  0  0  0  0  0  0  0  0  0  0
   47.6324    6.7731    2.0435 H   0  0  0  0  0  0  0  0  0  0  0  0
   49.5774    6.5437    1.0983 C   0  0  0  0  0  0  0  0  0  0  0  0
   50.4058    7.2043    0.7571 H   0  0  0  0  0  0  0  0  0  0  0  0
   49.0907    6.1101    0.1985 H   0  0  0  0  0  0  0  0  0  0  0  0
   50.1961    5.4208    1.9435 C   0  0  0  0  0  0  0  0  0  0  0  0
   50.9338    4.8513    1.3387 H   0  0  0  0  0  0  0  0  0  0  0  0
   49.4004    4.7033    2.2415 H   0  0  0  0  0  0  0  0  0  0  0  0
   50.7617    6.0312    3.1466 N   0  0  0  0  0  0  0  0  0  0  0  0
   49.7536    6.6078    4.0258 C   0  0  0  0  0  0  0  0  0  0  0  0
   50.1833    6.9521    4.9931 H   0  0  0  0  0  0  0  0  0  0  0  0
   48.9856    5.8382    4.2573 H   0  0  0  0  0  0  0  0  0  0  0  0
   49.1008    7.7860    3.2877 C   0  0  0  0  0  0  0  0  0  0  0  0
   48.2861    8.2139    3.9095 H   0  0  0  0  0  0  0  0  0  0  0  0
   49.8814    8.5694    3.1578 H   0  0  0  0  0  0  0  0  0  0  0  0
   52.0657    6.4491    3.2734 C   0  0  0  0  0  0  0  0  0  0  0  0
   52.4804    7.1675    4.1805 O   0  0  0  0  0  0  0  0  0  0  0  0
   52.8903    5.9593    2.3001 N   0  0  0  0  0  0  0  0  0  0  0  0
   52.5655    5.2620    1.6685 H   0  0  0  0  0  0  0  0  0  0  0  0
   54.2998    6.2016    2.2991 C   0  0  0  0  0  0  0  0  0  0  0  0
   54.6626    6.3819    3.3365 H   0  0  0  0  0  0  0  0  0  0  0  0
   54.5355    7.0995    1.6843 H   0  0  0  0  0  0  0  0  0  0  0  0
   56.1390    2.7172    0.5964 C   0  0  0  0  0  0  0  0  0  0  0  0
   56.5661    1.8277    0.1575 H   0  0  0  0  0  0  0  0  0  0  0  0
   55.8751    3.8353   -0.2056 C   0  0  0  0  0  0  0  0  0  0  0  0
   56.0948    3.8065   -1.2627 H   0  0  0  0  0  0  0  0  0  0  0  0
   55.3180    4.9867    0.3623 C   0  0  0  0  0  0  0  0  0  0  0  0
   55.0952    5.8400   -0.2614 H   0  0  0  0  0  0  0  0  0  0  0  0
   55.0294    5.0269    1.7356 C   0  0  0  0  0  0  0  0  0  0  0  0
   55.2867    3.9013    2.5349 C   0  0  0  0  0  0  0  0  0  0  0  0
   55.0405    3.9172    3.5863 H   0  0  0  0  0  0  0  0  0  0  0  0
   55.8450    2.7499    1.9662 C   0  0  0  0  0  0  0  0  0  0  0  0
   56.0417    1.8845    2.5817 H   0  0  0  0  0  0  0  0  0  0  0  0
  1  2  1  0
  1  5  1  0
  2  3  2  0
  2  6  1  0
  3  4  1  0
  3 20  1  0
  4  5  2  0
  4 19  1  0
  5  9  1  0
  6  7  2  0
  6  8  1  0
  9 10  2  0
  9 17  1  0
 10 11  1  0
 10 12  1  0
 12 13  2  0
 12 27  1  0
 13 14  1  0
 13 15  1  0
 15 16  1  0
 15 17  2  0
 17 18  1  0
 20 21  1  0
 21 22  1  0
 21 23  1  0
 21 24  1  0
 24 25  2  0
 24 26  1  0
 27 28  1  0
 27 29  1  0
 29 30  1  0
 29 31  1  0
 29 41  1  0
 31 32  1  0
 31 33  1  0
 31 34  1  0
 34 35  1  0
 34 36  1  0
 34 37  1  0
 37 38  1  0
 37 44  1  0
 38 39  1  0
 38 40  1  0
 38 41  1  0
 41 42  1  0
 41 43  1  0
 44 45  2  0
 44 46  1  0
 46 47  1  0
 46 48  1  0
 48 49  1  0
 48 50  1  0
 48 57  1  0
 51 52  1  0
 51 53  2  0
 51 60  1  0
 53 54  1  0
 53 55  1  0
 55 56  1  0
 55 57  2  0
 57 58  1  0
 58 59  1  0
 58 60  2  0
 60 61  1  0
M  CHG  2   8  -1  26  -1
M  END
> <intraLJ>
23.507    

> <intraEL>
0.884     

> <intraDihe>
36.479    

> <interLJ>
0.000     

> <interEJ>
0.000     

> <gridLJ>
-5.437    

> <gridEL>
0.000     

> <totalE>
55.433    

> <LGFE>
-5.437  

> <LE>
-0.147  

> <SMILES>
O=C([O-])COc1c(C(=O)[O-])sc(-c2cccc(NC3CCN(C(=O)NCc4ccccc4)CC3)c2)c1Br

> <atom.dprop.GFE>
-0.5335 0.0793 0.1775 0.1775 -0.2188 -0.5180 0.0000 0.0000 -0.2320 -0.2149 0.0000 -0.1353 -0.1695 0.0000 -0.1575 0.0000 -0.2268 0.0000 -0.4620 1.0610 0.8715 0.0000 0.0000 -2.6910 0.0000 0.0000 -0.2580 0.0000 -0.4782 0.0000 -0.1612 0.0000 0.0000 -0.3640 0.0000 0.0000 0.1435 0.0999 0.0000 0.0000 -0.3973 0.0000 0.0000 0.0000 -0.9080 0.2760 0.0000 0.4549 0.0000 0.0000 -0.1966 0.0000 -0.1892 0.0000 -0.0571 0.0000 0.0112 -0.0528 0.0000 -0.1680 0.0000

> <atom.prop.CLASS>
PRPC GEHC GEHC GEHC GEHC ACEC NCLA NCLA BENC BENC NCLA BENC BENC NCLA BENC NCLA BENC NCLA BRBX DMEO PRPC NCLA NCLA ACEC NCLA NCLA FORN NCLA PRPC NCLA PRPC NCLA NCLA PRPC NCLA NCLA GEHC PRPC NCLA NCLA PRPC NCLA NCLA NCLA FORO FORN NCLA PRPC NCLA NCLA BENC NCLA BENC NCLA BENC NCLA BENC BENC NCLA BENC NCLA

> <cluster_id>
1

> <rmsd_to_cluster_rep>
0.00    

> <ligRMSD>
2.05    

> <ligCOMD>
0.79    

$$$$
ptp1b_wilson_30_869
     RDKit          3D

 50 52  0  0  0  0  0  0  0  0999 V2000
   44.2538   12.8765   -0.6218 S   0  0  0  0  0  0  0  0  0  0  0  0
   44.0963   14.5226   -0.1310 C   0  0  0  0  0  0  0  0  0  0  0  0
   44.8253   14.7591    1.0063 C   0  0  0  0  0  0  0  0  0  0  0  0
   45.4488   13.6045    1.4687 C   0  0  0  0  0  0  0  0  0  0  0  0
   45.2668   12.4611    0.7137 C   0  0  0  0  0  0  0  0  0  0  0  0
   43.2893   15.4109   -1.0387 C   0  0  0  0  0  0  0  0  0  0  0  0
   43.6980   16.5824   -1.2747 O   0  0  0  0  0  0  0  0  0  0  0  0
   42.2331   14.8947   -1.5032 O   0  0  0  0  0  0  0  0  0  0  0  0
   45.5969   11.0247    0.8776 C   0  0  0  0  0  0  0  0  0  0  0  0
   46.9057   10.6491    1.2670 C   0  0  0  0  0  0  0  0  0  0  0  0
   47.6581   11.4130    1.4030 H   0  0  0  0  0  0  0  0  0  0  0  0
   47.2734    9.3043    1.4695 C   0  0  0  0  0  0  0  0  0  0  0  0
   46.3299    8.2949    1.2237 C   0  0  0  0  0  0  0  0  0  0  0  0
   46.6035    7.2543    1.3175 H   0  0  0  0  0  0  0  0  0  0  0  0
   45.0361    8.6339    0.8063 C   0  0  0  0  0  0  0  0  0  0  0  0
   44.3134    7.8557    0.6080 H   0  0  0  0  0  0  0  0  0  0  0  0
   44.6693    9.9774    0.6566 C   0  0  0  0  0  0  0  0  0  0  0  0
   43.6556   10.1959    0.3540 H   0  0  0  0  0  0  0  0  0  0  0  0
   46.4461   13.6495    3.0970 Br  0  0  0  0  0  0  0  0  0  0  0  0
   44.8332   15.9495    1.6307 O   0  0  0  0  0  0  0  0  0  0  0  0
   46.0950   16.6408    1.6237 C   0  0  0  0  0  0  0  0  0  0  0  0
   46.1317   17.3229    0.7449 H   0  0  0  0  0  0  0  0  0  0  0  0
   46.9505   15.9295    1.5581 H   0  0  0  0  0  0  0  0  0  0  0  0
   46.2993   17.4900    2.8924 C   0  0  0  0  0  0  0  0  0  0  0  0
   45.3940   17.4633    3.7672 O   0  0  0  0  0  0  0  0  0  0  0  0
   47.3779   18.1427    2.9349 O   0  0  0  0  0  0  0  0  0  0  0  0
   48.6498    9.0406    1.6746 N   0  0  0  0  0  0  0  0  0  0  0  0
   49.1121    9.7069    2.2908 H   0  0  0  0  0  0  0  0  0  0  0  0
   49.2478    7.6874    1.8627 C   0  0  0  0  0  0  0  0  0  0  0  0
   48.9391    7.0176    1.0316 H   0  0  0  0  0  0  0  0  0  0  0  0
   50.7823    7.8787    1.8003 C   0  0  0  0  0  0  0  0  0  0  0  0
   51.0857    8.6717    2.5222 H   0  0  0  0  0  0  0  0  0  0  0  0
   51.0679    8.2260    0.7826 H   0  0  0  0  0  0  0  0  0  0  0  0
   51.5797    6.6079    2.1271 C   0  0  0  0  0  0  0  0  0  0  0  0
   52.6651    6.8505    2.0895 H   0  0  0  0  0  0  0  0  0  0  0  0
   51.3678    5.8137    1.3797 H   0  0  0  0  0  0  0  0  0  0  0  0
   51.1535    6.1610    3.4589 N   0  0  0  0  0  0  0  0  0  0  0  0
   49.7320    5.7712    3.5186 C   0  0  0  0  0  0  0  0  0  0  0  0
   49.4485    5.3832    4.5217 H   0  0  0  0  0  0  0  0  0  0  0  0
   49.5368    4.9783    2.7653 H   0  0  0  0  0  0  0  0  0  0  0  0
   48.8751    7.0185    3.2093 C   0  0  0  0  0  0  0  0  0  0  0  0
   47.8014    6.7334    3.1975 H   0  0  0  0  0  0  0  0  0  0  0  0
   49.0201    7.7540    4.0323 H   0  0  0  0  0  0  0  0  0  0  0  0
   52.2522    5.4066    4.4346 S   0  0  0  0  0  0  0  0  0  0  0  0
   52.5689    3.8600    3.5906 C   0  0  0  0  0  0  0  0  0  0  0  0
   53.2973    3.2654    4.1813 H   0  0  0  0  0  0  0  0  0  0  0  0
   52.9898    4.0644    2.5836 H   0  0  0  0  0  0  0  0  0  0  0  0
   51.6216    3.2894    3.4907 H   0  0  0  0  0  0  0  0  0  0  0  0
   53.4749    6.1679    4.4286 O   0  0  0  0  0  0  0  0  0  0  0  0
   51.6121    5.1015    5.6876 O   0  0  0  0  0  0  0  0  0  0  0  0
  1  2  1  0
  1  5  1  0
  2  3  2  0
  2  6  1  0
  3  4  1  0
  3 20  1  0
  4  5  2  0
  4 19  1  0
  5  9  1  0
  6  7  2  0
  6  8  1  0
  9 10  2  0
  9 17  1  0
 10 11  1  0
 10 12  1  0
 12 13  2  0
 12 27  1  0
 13 14  1  0
 13 15  1  0
 15 16  1  0
 15 17  2  0
 17 18  1  0
 20 21  1  0
 21 22  1  0
 21 23  1  0
 21 24  1  0
 24 25  2  0
 24 26  1  0
 27 28  1  0
 27 29  1  0
 29 30  1  0
 29 31  1  0
 29 41  1  0
 31 32  1  0
 31 33  1  0
 31 34  1  0
 34 35  1  0
 34 36  1  0
 34 37  1  0
 37 38  1  0
 37 44  1  0
 38 39  1  0
 38 40  1  0
 38 41  1  0
 41 42  1  0
 41 43  1  0
 44 45  1  0
 44 49  2  0
 44 50  2  0
 45 46  1  0
 45 47  1  0
 45 48  1  0
M  CHG  2   8  -1  26  -1
M  END
> <intraLJ>
12.310    

> <intraEL>
4.179     

> <intraDihe>
29.910    

> <interLJ>
0.000     

> <interEJ>
0.000     

> <gridLJ>
-5.107    

> <gridEL>
0.000     

> <totalE>
41.292    

> <LGFE>
-5.107  

> <LE>
-0.165  

> <SMILES>
CS(=O)(=O)N1CCC(Nc2cccc(-c3sc(C(=O)[O-])c(OCC(=O)[O-])c3Br)c2)CC1

> <atom.dprop.GFE>
-0.5278 0.1775 0.4339 0.1775 -0.2188 -0.9440 0.0000 0.0000 -0.2261 -0.1884 0.0000 -0.1558 -0.1353 0.0000 -0.0721 0.0000 -0.2513 0.0000 -0.4620 1.0610 0.8715 0.0000 0.0000 -2.7610 0.0000 0.0000 -0.2580 0.0000 -0.4782 0.0000 -0.0796 0.0000 0.0000 0.0470 0.0000 0.0000 -0.1160 -0.4216 0.0000 0.0000 -0.5325 0.0000 0.0000 0.0000 -0.0097 0.0000 0.0000 0.0000 -0.2830 0.2460

> <atom.prop.CLASS>
PRPC GEHC GEHC GEHC GEHC ACEC NCLA NCLA BENC BENC NCLA BENC BENC NCLA BENC NCLA BENC NCLA BRBX DMEO PRPC NCLA NCLA ACEC NCLA NCLA FORN NCLA PRPC NCLA PRPC NCLA NCLA PRPC NCLA NCLA GENA PRPC NCLA NCLA PRPC NCLA NCLA NCLA PRPC NCLA NCLA NCLA FORO FORO

> <cluster_id>
1

> <rmsd_to_cluster_rep>
0.00    

> <ligRMSD>
1.67    

> <ligCOMD>
0.75    

$$$$
ptp1b_wilson_31_36
     RDKit          3D

 57 60  0  0  0  0  0  0  0  0999 V2000
   43.4747   12.1173   -0.1043 S   0  0  0  0  0  0  0  0  0  0  0  0
   43.3181   13.7856    0.3047 C   0  0  0  0  0  0  0  0  0  0  0  0
   44.2746   14.1508    1.2171 C   0  0  0  0  0  0  0  0  0  0  0  0
   45.0710   13.0726    1.5890 C   0  0  0  0  0  0  0  0  0  0  0  0
   44.7993   11.8650    0.9742 C   0  0  0  0  0  0  0  0  0  0  0  0
   42.2595   14.5542   -0.4387 C   0  0  0  0  0  0  0  0  0  0  0  0
   41.6955   14.0183   -1.4336 O   0  0  0  0  0  0  0  0  0  0  0  0
   42.0163   15.7116    0.0074 O   0  0  0  0  0  0  0  0  0  0  0  0
   45.2595   10.4664    1.1466 C   0  0  0  0  0  0  0  0  0  0  0  0
   46.6449   10.1995    1.2673 C   0  0  0  0  0  0  0  0  0  0  0  0
   47.3508   11.0146    1.1933 H   0  0  0  0  0  0  0  0  0  0  0  0
   47.1450    8.8977    1.4643 C   0  0  0  0  0  0  0  0  0  0  0  0
   46.2480    7.8184    1.4857 C   0  0  0  0  0  0  0  0  0  0  0  0
   46.6112    6.8054    1.5784 H   0  0  0  0  0  0  0  0  0  0  0  0
   44.8740    8.0478    1.3367 C   0  0  0  0  0  0  0  0  0  0  0  0
   44.1855    7.2154    1.3437 H   0  0  0  0  0  0  0  0  0  0  0  0
   44.3857    9.3525    1.1911 C   0  0  0  0  0  0  0  0  0  0  0  0
   43.3178    9.4878    1.1007 H   0  0  0  0  0  0  0  0  0  0  0  0
   46.4160   13.3003    2.9259 Br  0  0  0  0  0  0  0  0  0  0  0  0
   44.3429   15.3853    1.7447 O   0  0  0  0  0  0  0  0  0  0  0  0
   45.4883   16.1607    1.3490 C   0  0  0  0  0  0  0  0  0  0  0  0
   45.2397   16.7331    0.4274 H   0  0  0  0  0  0  0  0  0  0  0  0
   46.3688   15.5109    1.1375 H   0  0  0  0  0  0  0  0  0  0  0  0
   45.9112   17.1688    2.4339 C   0  0  0  0  0  0  0  0  0  0  0  0
   45.2603   17.1776    3.5117 O   0  0  0  0  0  0  0  0  0  0  0  0
   46.8917   17.9028    2.1323 O   0  0  0  0  0  0  0  0  0  0  0  0
   48.5486    8.7286    1.3808 N   0  0  0  0  0  0  0  0  0  0  0  0
   49.0845    9.5560    1.6368 H   0  0  0  0  0  0  0  0  0  0  0  0
   49.2922    7.5004    1.7847 C   0  0  0  0  0  0  0  0  0  0  0  0
   48.9369    6.6296    1.1929 H   0  0  0  0  0  0  0  0  0  0  0  0
   50.7779    7.7574    1.4412 C   0  0  0  0  0  0  0  0  0  0  0  0
   51.1032    8.7202    1.8986 H   0  0  0  0  0  0  0  0  0  0  0  0
   50.8876    7.8569    0.3385 H   0  0  0  0  0  0  0  0  0  0  0  0
   51.7248    6.6526    1.9306 C   0  0  0  0  0  0  0  0  0  0  0  0
   52.7662    6.9374    1.6593 H   0  0  0  0  0  0  0  0  0  0  0  0
   51.4814    5.6857    1.4401 H   0  0  0  0  0  0  0  0  0  0  0  0
   51.5413    6.5397    3.3834 N   0  0  0  0  0  0  0  0  0  0  0  0
   50.1849    6.0855    3.7486 C   0  0  0  0  0  0  0  0  0  0  0  0
   50.0797    5.9446    4.8471 H   0  0  0  0  0  0  0  0  0  0  0  0
   49.9681    5.1190    3.2453 H   0  0  0  0  0  0  0  0  0  0  0  0
   49.1737    7.1610    3.2916 C   0  0  0  0  0  0  0  0  0  0  0  0
   48.1420    6.8142    3.5142 H   0  0  0  0  0  0  0  0  0  0  0  0
   49.3554    8.0843    3.8865 H   0  0  0  0  0  0  0  0  0  0  0  0
   52.8260    5.9927    4.2717 S   0  0  0  0  0  0  0  0  0  0  0  0
   54.0473    6.5898    3.7921 O   0  0  0  0  0  0  0  0  0  0  0  0
   52.4931    6.0169    5.6735 O   0  0  0  0  0  0  0  0  0  0  0  0
   53.0881    1.5462    3.1284 C   0  0  0  0  0  0  0  0  0  0  0  0
   53.1504    0.5014    2.8611 H   0  0  0  0  0  0  0  0  0  0  0  0
   52.2927    1.9471    4.2078 C   0  0  0  0  0  0  0  0  0  0  0  0
   51.7406    1.2108    4.7736 H   0  0  0  0  0  0  0  0  0  0  0  0
   52.2108    3.3020    4.5550 C   0  0  0  0  0  0  0  0  0  0  0  0
   51.5898    3.5913    5.3901 H   0  0  0  0  0  0  0  0  0  0  0  0
   52.9258    4.2771    3.8283 C   0  0  0  0  0  0  0  0  0  0  0  0
   53.7219    3.8563    2.7418 C   0  0  0  0  0  0  0  0  0  0  0  0
   54.2794    4.5782    2.1631 H   0  0  0  0  0  0  0  0  0  0  0  0
   53.8023    2.5009    2.3956 C   0  0  0  0  0  0  0  0  0  0  0  0
   54.4161    2.1923    1.5619 H   0  0  0  0  0  0  0  0  0  0  0  0
  1  2  1  0
  1  5  1  0
  2  3  2  0
  2  6  1  0
  3  4  1  0
  3 20  1  0
  4  5  2  0
  4 19  1  0
  5  9  1  0
  6  7  2  0
  6  8  1  0
  9 10  2  0
  9 17  1  0
 10 11  1  0
 10 12  1  0
 12 13  2  0
 12 27  1  0
 13 14  1  0
 13 15  1  0
 15 16  1  0
 15 17  2  0
 17 18  1  0
 20 21  1  0
 21 22  1  0
 21 23  1  0
 21 24  1  0
 24 25  2  0
 24 26  1  0
 27 28  1  0
 27 29  1  0
 29 30  1  0
 29 31  1  0
 29 41  1  0
 31 32  1  0
 31 33  1  0
 31 34  1  0
 34 35  1  0
 34 36  1  0
 34 37  1  0
 37 38  1  0
 37 44  1  0
 38 39  1  0
 38 40  1  0
 38 41  1  0
 41 42  1  0
 41 43  1  0
 44 45  2  0
 44 46  2  0
 44 53  1  0
 47 48  1  0
 47 49  2  0
 47 56  1  0
 49 50  1  0
 49 51  1  0
 51 52  1  0
 51 53  2  0
 53 54  1  0
 54 55  1  0
 54 56  2  0
 56 57  1  0
M  CHG  2   8  -1  26  -1
M  END
> <intraLJ>
23.215    

> <intraEL>
8.063     

> <intraDihe>
28.835    

> <interLJ>
0.000     

> <interEJ>
0.000     

> <gridLJ>
-6.103    

> <gridEL>
0.000     

> <totalE>
54.009    

> <LGFE>
-6.103  

> <LE>
-0.170  

> <SMILES>
O=C([O-])COc1c(C(=O)[O-])sc(-c2cccc(NC3CCN(S(=O)(=O)c4ccccc4)CC3)c2)c1Br

> <atom.dprop.GFE>
-0.6194 -0.0636 0.0233 -0.0699 -0.1698 -0.9060 0.0000 0.0000 -0.2290 -0.1884 0.0000 -0.1353 -0.0443 0.0000 0.0852 0.0000 -0.1835 0.0000 -0.4620 1.0610 0.5691 0.0000 0.0000 -2.6910 0.0000 0.0000 -0.2580 0.0000 -0.4782 0.0000 0.0143 0.0000 0.0000 0.0470 0.0000 0.0000 0.1650 -0.4216 0.0000 0.0000 -0.5325 0.0000 0.0000 0.0000 -0.2830 -0.0490 0.0539 0.0000 -0.0456 0.0000 -0.0767 0.0000 -0.0696 -0.0807 0.0000 -0.0651 0.0000

> <atom.prop.CLASS>
PRPC GEHC GEHC GEHC GEHC ACEC NCLA NCLA BENC BENC NCLA BENC BENC NCLA BENC NCLA BENC NCLA BRBX DMEO PRPC NCLA NCLA ACEC NCLA NCLA FORN NCLA PRPC NCLA PRPC NCLA NCLA PRPC NCLA NCLA GENA PRPC NCLA NCLA PRPC NCLA NCLA NCLA FORO FORO BENC NCLA BENC NCLA BENC NCLA BENC BENC NCLA BENC NCLA

> <cluster_id>
1

> <rmsd_to_cluster_rep>
0.00    

> <ligRMSD>
1.95    

> <ligCOMD>
0.74    

$$$$
ptp1b_wilson_32_2qbp_333
     RDKit          3D

 60 63  0  0  0  0  0  0  0  0999 V2000
   44.9817   13.8987   -0.5067 S   0  0  0  0  0  0  0  0  0  0  0  0
   44.8167   15.3172    0.4606 C   0  0  0  0  0  0  0  0  0  0  0  0
   45.3053   15.0999    1.7234 C   0  0  0  0  0  0  0  0  0  0  0  0
   45.7543   13.7932    1.8849 C   0  0  0  0  0  0  0  0  0  0  0  0
   45.6695   12.9711    0.7771 C   0  0  0  0  0  0  0  0  0  0  0  0
   44.2677   16.5337   -0.2344 C   0  0  0  0  0  0  0  0  0  0  0  0
   44.9643   17.1015   -1.1217 O   0  0  0  0  0  0  0  0  0  0  0  0
   43.1179   16.9000    0.1419 O   0  0  0  0  0  0  0  0  0  0  0  0
   45.8762   11.5260    0.5178 C   0  0  0  0  0  0  0  0  0  0  0  0
   47.0258   10.8820    1.0370 C   0  0  0  0  0  0  0  0  0  0  0  0
   47.7573   11.4609    1.5827 H   0  0  0  0  0  0  0  0  0  0  0  0
   47.2645    9.5058    0.8529 C   0  0  0  0  0  0  0  0  0  0  0  0
   46.3638    8.7554    0.0810 C   0  0  0  0  0  0  0  0  0  0  0  0
   46.5540    7.7119   -0.1226 H   0  0  0  0  0  0  0  0  0  0  0  0
   45.2342    9.3718   -0.4728 C   0  0  0  0  0  0  0  0  0  0  0  0
   44.5472    8.7949   -1.0747 H   0  0  0  0  0  0  0  0  0  0  0  0
   44.9830   10.7299   -0.2403 C   0  0  0  0  0  0  0  0  0  0  0  0
   44.0896   11.1613   -0.6676 H   0  0  0  0  0  0  0  0  0  0  0  0
   46.3911   13.2103    3.5886 Br  0  0  0  0  0  0  0  0  0  0  0  0
   45.2492   16.0276    2.6946 O   0  0  0  0  0  0  0  0  0  0  0  0
   45.6990   17.3410    2.3172 C   0  0  0  0  0  0  0  0  0  0  0  0
   44.8353   17.9226    1.9241 H   0  0  0  0  0  0  0  0  0  0  0  0
   46.4845   17.2933    1.5281 H   0  0  0  0  0  0  0  0  0  0  0  0
   46.2909   18.1176    3.5083 C   0  0  0  0  0  0  0  0  0  0  0  0
   46.3415   17.5331    4.6224 O   0  0  0  0  0  0  0  0  0  0  0  0
   46.6785   19.2891    3.2466 O   0  0  0  0  0  0  0  0  0  0  0  0
   48.5325    9.0124    1.2480 N   0  0  0  0  0  0  0  0  0  0  0  0
   49.0200    9.6053    1.9175 H   0  0  0  0  0  0  0  0  0  0  0  0
   48.8562    7.5798    1.5140 C   0  0  0  0  0  0  0  0  0  0  0  0
   48.5162    6.9500    0.6642 H   0  0  0  0  0  0  0  0  0  0  0  0
   50.3984    7.4896    1.6108 C   0  0  0  0  0  0  0  0  0  0  0  0
   50.7671    8.2421    2.3455 H   0  0  0  0  0  0  0  0  0  0  0  0
   50.8426    7.7418    0.6225 H   0  0  0  0  0  0  0  0  0  0  0  0
   50.9163    6.1097    2.0442 C   0  0  0  0  0  0  0  0  0  0  0  0
   52.0260    6.1513    2.1139 H   0  0  0  0  0  0  0  0  0  0  0  0
   50.6379    5.3384    1.2945 H   0  0  0  0  0  0  0  0  0  0  0  0
   50.2869    5.7962    3.3334 N   0  0  0  0  0  0  0  0  0  0  0  0
   48.8191    5.6667    3.2497 C   0  0  0  0  0  0  0  0  0  0  0  0
   48.3714    5.3734    4.2246 H   0  0  0  0  0  0  0  0  0  0  0  0
   48.5625    4.8910    2.4969 H   0  0  0  0  0  0  0  0  0  0  0  0
   48.2330    7.0318    2.8230 C   0  0  0  0  0  0  0  0  0  0  0  0
   47.1332    6.9369    2.6988 H   0  0  0  0  0  0  0  0  0  0  0  0
   48.4183    7.7600    3.6444 H   0  0  0  0  0  0  0  0  0  0  0  0
   51.1429    4.9573    4.4791 S   0  0  0  0  0  0  0  0  0  0  0  0
   51.1312    3.2756    3.7987 C   0  0  0  0  0  0  0  0  0  0  0  0
   51.6042    3.3007    2.7932 H   0  0  0  0  0  0  0  0  0  0  0  0
   50.0743    2.9430    3.7100 H   0  0  0  0  0  0  0  0  0  0  0  0
   52.5017    5.4374    4.4737 O   0  0  0  0  0  0  0  0  0  0  0  0
   50.3803    4.9627    5.7010 O   0  0  0  0  0  0  0  0  0  0  0  0
   53.2721    0.3886    6.2221 C   0  0  0  0  0  0  0  0  0  0  0  0
   53.7993   -0.3508    6.8069 H   0  0  0  0  0  0  0  0  0  0  0  0
   51.9091    0.6190    6.4468 C   0  0  0  0  0  0  0  0  0  0  0  0
   51.3843    0.0551    7.2037 H   0  0  0  0  0  0  0  0  0  0  0  0
   51.2247    1.5784    5.6876 C   0  0  0  0  0  0  0  0  0  0  0  0
   50.1713    1.7424    5.8607 H   0  0  0  0  0  0  0  0  0  0  0  0
   51.8964    2.3190    4.6960 C   0  0  0  0  0  0  0  0  0  0  0  0
   53.2651    2.0745    4.4754 C   0  0  0  0  0  0  0  0  0  0  0  0
   53.7927    2.6245    3.7100 H   0  0  0  0  0  0  0  0  0  0  0  0
   53.9502    1.1179    5.2374 C   0  0  0  0  0  0  0  0  0  0  0  0
   55.0006    0.9391    5.0611 H   0  0  0  0  0  0  0  0  0  0  0  0
  1  2  1  0
  1  5  1  0
  2  3  2  0
  2  6  1  0
  3  4  1  0
  3 20  1  0
  4  5  2  0
  4 19  1  0
  5  9  1  0
  6  7  2  0
  6  8  1  0
  9 10  2  0
  9 17  1  0
 10 11  1  0
 10 12  1  0
 12 13  2  0
 12 27  1  0
 13 14  1  0
 13 15  1  0
 15 16  1  0
 15 17  2  0
 17 18  1  0
 20 21  1  0
 21 22  1  0
 21 23  1  0
 21 24  1  0
 24 25  2  0
 24 26  1  0
 27 28  1  0
 27 29  1  0
 29 30  1  0
 29 31  1  0
 29 41  1  0
 31 32  1  0
 31 33  1  0
 31 34  1  0
 34 35  1  0
 34 36  1  0
 34 37  1  0
 37 38  1  0
 37 44  1  0
 38 39  1  0
 38 40  1  0
 38 41  1  0
 41 42  1  0
 41 43  1  0
 44 45  1  0
 44 48  2  0
 44 49  2  0
 45 46  1  0
 45 47  1  0
 45 56  1  0
 50 51  1  0
 50 52  2  0
 50 59  1  0
 52 53  1  0
 52 54  1  0
 54 55  1  0
 54 56  2  0
 56 57  1  0
 57 58  1  0
 57 59  2  0
 59 60  1  0
M  CHG  2   8  -1  26  -1
M  END
> <intraLJ>
21.342    

> <intraEL>
6.554     

> <intraDihe>
44.676    

> <interLJ>
0.000     

> <interEJ>
0.000     

> <gridLJ>
-4.422    

> <gridEL>
0.000     

> <totalE>
68.150    

> <LGFE>
-4.422  

> <LE>
-0.120  

> <SMILES>
O=C([O-])COc1c(C(=O)[O-])sc(-c2cccc(NC3CCN(S(=O)(=O)Cc4ccccc4)CC3)c2)c1Br

> <atom.dprop.GFE>
-0.3813 0.3826 0.3420 0.3303 -0.0080 -0.9950 0.0000 0.0000 -0.2483 -0.1884 0.0000 -0.1558 -0.1413 0.0000 -0.2268 0.0000 -0.2627 0.0000 -0.4620 1.9690 1.3443 0.0000 0.0000 -2.7610 0.0000 0.0000 -0.2580 0.0000 -0.3387 0.0000 0.0143 0.0000 0.0000 -0.2058 0.0000 0.0000 -0.4430 -0.5764 0.0000 0.0000 -0.6660 0.0000 0.0000 0.0000 -0.1409 0.0000 0.0000 -0.3620 0.1900 -0.0155 0.0000 -0.1254 0.0000 -0.0576 0.0000 -0.0576 0.0192 0.0000 0.0636 0.0000

> <atom.prop.CLASS>
PRPC GEHC GEHC GEHC GEHC ACEC NCLA NCLA BENC BENC NCLA BENC BENC NCLA BENC NCLA BENC NCLA BRBX DMEO PRPC NCLA NCLA ACEC NCLA NCLA FORN NCLA PRPC NCLA PRPC NCLA NCLA PRPC NCLA NCLA GENA PRPC NCLA NCLA PRPC NCLA NCLA NCLA PRPC NCLA NCLA FORO FORO BENC NCLA BENC NCLA BENC NCLA BENC BENC NCLA BENC NCLA

> <cluster_id>
1

> <rmsd_to_cluster_rep>
0.00    

> <ligRMSD>
1.51    

> <ligCOMD>
1.02    

$$$$
ptp1b_wilson_33_611
     RDKit          3D

 60 63  0  0  0  0  0  0  0  0999 V2000
   43.8408   11.7931   -0.5403 S   0  0  0  0  0  0  0  0  0  0  0  0
   43.8056   13.1538    0.5174 C   0  0  0  0  0  0  0  0  0  0  0  0
   44.4631   12.8699    1.6859 C   0  0  0  0  0  0  0  0  0  0  0  0
   44.9313   11.5631    1.7178 C   0  0  0  0  0  0  0  0  0  0  0  0
   44.6974   10.8065    0.5865 C   0  0  0  0  0  0  0  0  0  0  0  0
   43.1610   14.3995   -0.0221 C   0  0  0  0  0  0  0  0  0  0  0  0
   43.0735   14.5547   -1.2726 O   0  0  0  0  0  0  0  0  0  0  0  0
   42.7483   15.2167    0.8497 O   0  0  0  0  0  0  0  0  0  0  0  0
   44.8753    9.3790    0.2351 C   0  0  0  0  0  0  0  0  0  0  0  0
   46.0870    8.7265    0.5698 C   0  0  0  0  0  0  0  0  0  0  0  0
   46.8686    9.2877    1.0640 H   0  0  0  0  0  0  0  0  0  0  0  0
   46.3135    7.3673    0.2672 C   0  0  0  0  0  0  0  0  0  0  0  0
   45.3234    6.6467   -0.4196 C   0  0  0  0  0  0  0  0  0  0  0  0
   45.4939    5.6200   -0.7087 H   0  0  0  0  0  0  0  0  0  0  0  0
   44.1228    7.2725   -0.7783 C   0  0  0  0  0  0  0  0  0  0  0  0
   43.3659    6.7185   -1.3143 H   0  0  0  0  0  0  0  0  0  0  0  0
   43.8952    8.6122   -0.4407 C   0  0  0  0  0  0  0  0  0  0  0  0
   42.9503    9.0537   -0.7223 H   0  0  0  0  0  0  0  0  0  0  0  0
   45.4429   11.1717    2.5850 H   0  0  0  0  0  0  0  0  0  0  0  0
   44.5400   13.7172    2.7240 O   0  0  0  0  0  0  0  0  0  0  0  0
   45.5327   13.3859    3.7112 C   0  0  0  0  0  0  0  0  0  0  0  0
   46.5112   13.2208    3.2067 H   0  0  0  0  0  0  0  0  0  0  0  0
   45.2557   12.4600    4.2667 H   0  0  0  0  0  0  0  0  0  0  0  0
   45.7204   14.5070    4.7518 C   0  0  0  0  0  0  0  0  0  0  0  0
   45.0046   15.5368    4.6394 O   0  0  0  0  0  0  0  0  0  0  0  0
   46.5893   14.2790    5.6373 O   0  0  0  0  0  0  0  0  0  0  0  0
   47.6273    6.8672    0.4480 N   0  0  0  0  0  0  0  0  0  0  0  0
   48.3105    7.2405   -0.2085 H   0  0  0  0  0  0  0  0  0  0  0  0
   48.2779    6.6134    1.7681 C   0  0  0  0  0  0  0  0  0  0  0  0
   47.6178    5.9826    2.4012 H   0  0  0  0  0  0  0  0  0  0  0  0
   49.5799    5.8279    1.4771 C   0  0  0  0  0  0  0  0  0  0  0  0
   50.1744    6.3712    0.7069 H   0  0  0  0  0  0  0  0  0  0  0  0
   49.3195    4.8313    1.0567 H   0  0  0  0  0  0  0  0  0  0  0  0
   50.4748    5.6226    2.7093 C   0  0  0  0  0  0  0  0  0  0  0  0
   51.3941    5.0797    2.3959 H   0  0  0  0  0  0  0  0  0  0  0  0
   49.9475    5.0126    3.4737 H   0  0  0  0  0  0  0  0  0  0  0  0
   50.7712    6.9526    3.2565 N   0  0  0  0  0  0  0  0  0  0  0  0
   49.5723    7.6607    3.7457 C   0  0  0  0  0  0  0  0  0  0  0  0
   49.8274    8.6394    4.2080 H   0  0  0  0  0  0  0  0  0  0  0  0
   49.0624    7.0335    4.5080 H   0  0  0  0  0  0  0  0  0  0  0  0
   48.6284    7.9070    2.5466 C   0  0  0  0  0  0  0  0  0  0  0  0
   47.6937    8.3868    2.9078 H   0  0  0  0  0  0  0  0  0  0  0  0
   49.1285    8.6211    1.8544 H   0  0  0  0  0  0  0  0  0  0  0  0
   52.2583    7.2486    3.9287 S   0  0  0  0  0  0  0  0  0  0  0  0
   52.1306    6.3829    5.5176 C   0  0  0  0  0  0  0  0  0  0  0  0
   51.9467    5.3054    5.3163 H   0  0  0  0  0  0  0  0  0  0  0  0
   51.2743    6.8129    6.0810 H   0  0  0  0  0  0  0  0  0  0  0  0
   53.2584    6.5841    3.1318 O   0  0  0  0  0  0  0  0  0  0  0  0
   52.3614    8.6624    4.1845 O   0  0  0  0  0  0  0  0  0  0  0  0
   55.6848    6.7043    7.9779 C   0  0  0  0  0  0  0  0  0  0  0  0
   56.5579    6.7680    8.6106 H   0  0  0  0  0  0  0  0  0  0  0  0
   54.6638    7.6557    8.0937 C   0  0  0  0  0  0  0  0  0  0  0  0
   54.7482    8.4523    8.8181 H   0  0  0  0  0  0  0  0  0  0  0  0
   53.5304    7.5728    7.2728 C   0  0  0  0  0  0  0  0  0  0  0  0
   52.7431    8.3050    7.3759 H   0  0  0  0  0  0  0  0  0  0  0  0
   53.4065    6.5380    6.3261 C   0  0  0  0  0  0  0  0  0  0  0  0
   54.4370    5.5844    6.2224 C   0  0  0  0  0  0  0  0  0  0  0  0
   54.3522    4.7768    5.5102 H   0  0  0  0  0  0  0  0  0  0  0  0
   55.5719    5.6698    7.0406 C   0  0  0  0  0  0  0  0  0  0  0  0
   56.3574    4.9338    6.9522 H   0  0  0  0  0  0  0  0  0  0  0  0
  1  2  1  0
  1  5  1  0
  2  3  2  0
  2  6  1  0
  3  4  1  0
  3 20  1  0
  4  5  2  0
  4 19  1  0
  5  9  1  0
  6  7  2  0
  6  8  1  0
  9 10  2  0
  9 17  1  0
 10 11  1  0
 10 12  1  0
 12 13  2  0
 12 27  1  0
 13 14  1  0
 13 15  1  0
 15 16  1  0
 15 17  2  0
 17 18  1  0
 20 21  1  0
 21 22  1  0
 21 23  1  0
 21 24  1  0
 24 25  2  0
 24 26  1  0
 27 28  1  0
 27 29  1  0
 29 30  1  0
 29 31  1  0
 29 41  1  0
 31 32  1  0
 31 33  1  0
 31 34  1  0
 34 35  1  0
 34 36  1  0
 34 37  1  0
 37 38  1  0
 37 44  1  0
 38 39  1  0
 38 40  1  0
 38 41  1  0
 41 42  1  0
 41 43  1  0
 44 45  1  0
 44 48  2  0
 44 49  2  0
 45 46  1  0
 45 47  1  0
 45 56  1  0
 50 51  1  0
 50 52  2  0
 50 59  1  0
 52 53  1  0
 52 54  1  0
 54 55  1  0
 54 56  2  0
 56 57  1  0
 57 58  1  0
 57 59  2  0
 59 60  1  0
M  CHG  2   8  -1  26  -1
M  END
> <intraLJ>
24.837    

> <intraEL>
3.867     

> <intraDihe>
41.916    

> <interLJ>
0.000     

> <interEJ>
0.000     

> <gridLJ>
-5.300    

> <gridEL>
0.000     

> <totalE>
65.321    

> <LGFE>
-5.300  

> <LE>
-0.147  

> <SMILES>
O=C([O-])COc1cc(-c2cccc(NC3CCN(S(=O)(=O)Cc4ccccc4)CC3)c2)sc1C(=O)[O-]

> <atom.dprop.GFE>
-0.5558 -0.2131 -0.0699 -0.1698 -0.2454 -0.5260 0.0000 0.0000 -0.2513 -0.1695 0.0000 -0.1456 0.0586 0.0000 0.1214 0.0000 -0.0691 0.0000 0.0000 -0.2020 0.6121 0.0000 0.0000 -3.0450 0.0000 0.0000 -0.0490 0.0000 -0.6420 0.0000 -0.1369 0.0000 0.0000 -0.2058 0.0000 0.0000 0.1830 -0.1562 0.0000 0.0000 -0.4782 0.0000 0.0000 0.0000 0.5038 0.0000 0.0000 0.1140 -0.5800 0.1394 0.0000 0.2099 0.0000 0.2477 0.0000 0.0688 0.1588 0.0000 0.1936 0.0000

> <atom.prop.CLASS>
PRPC GEHC GEHC GEHC GEHC ACEC NCLA NCLA BENC BENC NCLA BENC BENC NCLA BENC NCLA BENC NCLA NCLA DMEO PRPC NCLA NCLA ACEC NCLA NCLA FORN NCLA PRPC NCLA PRPC NCLA NCLA PRPC NCLA NCLA GENA PRPC NCLA NCLA PRPC NCLA NCLA NCLA PRPC NCLA NCLA FORO FORO BENC NCLA BENC NCLA BENC NCLA BENC BENC NCLA BENC NCLA

> <cluster_id>
1

> <rmsd_to_cluster_rep>
0.00    

> <ligRMSD>
2.97    

> <ligCOMD>
0.76    

$$$$
ptp1b_wilson_34_1172
     RDKit          3D

 63 66  0  0  0  0  0  0  0  0999 V2000
   44.1912   12.0840   -0.7909 S   0  0  0  0  0  0  0  0  0  0  0  0
   43.9100   13.2652    0.4281 C   0  0  0  0  0  0  0  0  0  0  0  0
   44.4906   12.8827    1.6095 C   0  0  0  0  0  0  0  0  0  0  0  0
   45.1038   11.6330    1.5325 C   0  0  0  0  0  0  0  0  0  0  0  0
   45.0630   11.0422    0.2770 C   0  0  0  0  0  0  0  0  0  0  0  0
   43.1465   14.4926    0.0058 C   0  0  0  0  0  0  0  0  0  0  0  0
   43.6456   15.2562   -0.8674 O   0  0  0  0  0  0  0  0  0  0  0  0
   42.0334   14.6636    0.5808 O   0  0  0  0  0  0  0  0  0  0  0  0
   45.4542    9.7183   -0.2704 C   0  0  0  0  0  0  0  0  0  0  0  0
   46.7266    9.1768    0.0423 C   0  0  0  0  0  0  0  0  0  0  0  0
   47.4164    9.7551    0.6404 H   0  0  0  0  0  0  0  0  0  0  0  0
   47.1377    7.9071   -0.4095 C   0  0  0  0  0  0  0  0  0  0  0  0
   46.2847    7.1744   -1.2490 C   0  0  0  0  0  0  0  0  0  0  0  0
   46.5989    6.2241   -1.6550 H   0  0  0  0  0  0  0  0  0  0  0  0
   45.0356    7.6983   -1.6067 C   0  0  0  0  0  0  0  0  0  0  0  0
   44.3846    7.1376   -2.2616 H   0  0  0  0  0  0  0  0  0  0  0  0
   44.6188    8.9397   -1.1089 C   0  0  0  0  0  0  0  0  0  0  0  0
   43.6387    9.2962   -1.3903 H   0  0  0  0  0  0  0  0  0  0  0  0
   45.7491   10.9891    2.7418 C   0  0  0  0  0  0  0  0  0  0  0  0
   45.3101   11.3871    3.6831 H   0  0  0  0  0  0  0  0  0  0  0  0
   46.8404   11.1973    2.7444 H   0  0  0  0  0  0  0  0  0  0  0  0
   45.5905    9.8891    2.7295 H   0  0  0  0  0  0  0  0  0  0  0  0
   44.3796   13.6006    2.7415 O   0  0  0  0  0  0  0  0  0  0  0  0
   44.6530   15.0074    2.6095 C   0  0  0  0  0  0  0  0  0  0  0  0
   43.6979   15.5478    2.4252 H   0  0  0  0  0  0  0  0  0  0  0  0
   45.3460   15.2107    1.7608 H   0  0  0  0  0  0  0  0  0  0  0  0
   45.2963   15.5958    3.8792 C   0  0  0  0  0  0  0  0  0  0  0  0
   45.5173   14.8129    4.8402 O   0  0  0  0  0  0  0  0  0  0  0  0
   45.5478   16.8310    3.8324 O   0  0  0  0  0  0  0  0  0  0  0  0
   48.4920    7.5494   -0.1921 N   0  0  0  0  0  0  0  0  0  0  0  0
   49.1651    8.1896   -0.6097 H   0  0  0  0  0  0  0  0  0  0  0  0
   49.0449    6.9920    1.0780 C   0  0  0  0  0  0  0  0  0  0  0  0
   48.4632    6.0959    1.3832 H   0  0  0  0  0  0  0  0  0  0  0  0
   50.4985    6.5563    0.7714 C   0  0  0  0  0  0  0  0  0  0  0  0
   51.0476    7.4055    0.3033 H   0  0  0  0  0  0  0  0  0  0  0  0
   50.4828    5.7221    0.0354 H   0  0  0  0  0  0  0  0  0  0  0  0
   51.2892    6.1042    2.0088 C   0  0  0  0  0  0  0  0  0  0  0  0
   52.3236    5.8413    1.6944 H   0  0  0  0  0  0  0  0  0  0  0  0
   50.8186    5.2057    2.4623 H   0  0  0  0  0  0  0  0  0  0  0  0
   51.2628    7.2144    2.9696 N   0  0  0  0  0  0  0  0  0  0  0  0
   49.9056    7.5323    3.4546 C   0  0  0  0  0  0  0  0  0  0  0  0
   49.9166    8.3361    4.2230 H   0  0  0  0  0  0  0  0  0  0  0  0
   49.4551    6.6216    3.9042 H   0  0  0  0  0  0  0  0  0  0  0  0
   49.0558    8.0038    2.2523 C   0  0  0  0  0  0  0  0  0  0  0  0
   48.0141    8.1911    2.5898 H   0  0  0  0  0  0  0  0  0  0  0  0
   49.4730    8.9711    1.8922 H   0  0  0  0  0  0  0  0  0  0  0  0
   52.5884    7.5024    3.9236 S   0  0  0  0  0  0  0  0  0  0  0  0
   52.4803    6.1544    5.1327 C   0  0  0  0  0  0  0  0  0  0  0  0
   52.5469    5.1880    4.5876 H   0  0  0  0  0  0  0  0  0  0  0  0
   51.4996    6.2285    5.6506 H   0  0  0  0  0  0  0  0  0  0  0  0
   53.7735    7.3017    3.1286 O   0  0  0  0  0  0  0  0  0  0  0  0
   52.3832    8.7515    4.6109 O   0  0  0  0  0  0  0  0  0  0  0  0
   55.6122    6.2326    8.1283 C   0  0  0  0  0  0  0  0  0  0  0  0
   56.3814    6.2287    8.8866 H   0  0  0  0  0  0  0  0  0  0  0  0
   54.4196    6.9348    8.3425 C   0  0  0  0  0  0  0  0  0  0  0  0
   54.2679    7.4707    9.2678 H   0  0  0  0  0  0  0  0  0  0  0  0
   53.4211    6.9395    7.3585 C   0  0  0  0  0  0  0  0  0  0  0  0
   52.5004    7.4754    7.5364 H   0  0  0  0  0  0  0  0  0  0  0  0
   53.6051    6.2428    6.1488 C   0  0  0  0  0  0  0  0  0  0  0  0
   54.8059    5.5362    5.9470 C   0  0  0  0  0  0  0  0  0  0  0  0
   54.9581    4.9860    5.0301 H   0  0  0  0  0  0  0  0  0  0  0  0
   55.8058    5.5350    6.9295 C   0  0  0  0  0  0  0  0  0  0  0  0
   56.7239    4.9907    6.7642 H   0  0  0  0  0  0  0  0  0  0  0  0
  1  2  1  0
  1  5  1  0
  2  3  2  0
  2  6  1  0
  3  4  1  0
  3 23  1  0
  4  5  2  0
  4 19  1  0
  5  9  1  0
  6  7  2  0
  6  8  1  0
  9 10  2  0
  9 17  1  0
 10 11  1  0
 10 12  1  0
 12 13  2  0
 12 30  1  0
 13 14  1  0
 13 15  1  0
 15 16  1  0
 15 17  2  0
 17 18  1  0
 19 20  1  0
 19 21  1  0
 19 22  1  0
 23 24  1  0
 24 25  1  0
 24 26  1  0
 24 27  1  0
 27 28  2  0
 27 29  1  0
 30 31  1  0
 30 32  1  0
 32 33  1  0
 32 34  1  0
 32 44  1  0
 34 35  1  0
 34 36  1  0
 34 37  1  0
 37 38  1  0
 37 39  1  0
 37 40  1  0
 40 41  1  0
 40 47  1  0
 41 42  1  0
 41 43  1  0
 41 44  1  0
 44 45  1  0
 44 46  1  0
 47 48  1  0
 47 51  2  0
 47 52  2  0
 48 49  1  0
 48 50  1  0
 48 59  1  0
 53 54  1  0
 53 55  2  0
 53 62  1  0
 55 56  1  0
 55 57  1  0
 57 58  1  0
 57 59  2  0
 59 60  1  0
 60 61  1  0
 60 62  2  0
 62 63  1  0
M  CHG  2   8  -1  29  -1
M  END
> <intraLJ>
21.196    

> <intraEL>
5.796     

> <intraDihe>
51.731    

> <interLJ>
0.000     

> <interEJ>
0.000     

> <gridLJ>
-4.715    

> <gridEL>
0.000     

> <totalE>
74.008    

> <LGFE>
-4.715  

> <LE>
-0.127  

> <SMILES>
Cc1c(-c2cccc(NC3CCN(S(=O)(=O)Cc4ccccc4)CC3)c2)sc(C(=O)[O-])c1OCC(=O)[O-]

> <atom.dprop.GFE>
-0.5558 -0.0636 -0.0699 -0.1698 -0.2454 -0.5260 0.0000 0.0000 -0.1890 -0.1904 0.0000 -0.0489 -0.0568 0.0000 0.0386 0.0000 -0.1575 0.0000 -0.2294 0.0000 0.0000 0.0000 -0.2020 0.3307 0.0000 0.0000 -2.2060 0.0000 0.0000 -0.0310 0.0000 -0.3630 0.0000 0.0073 0.0000 0.0000 -0.2058 0.0000 0.0000 0.1920 -0.1562 0.0000 0.0000 -0.4782 0.0000 0.0000 0.0000 0.3427 0.0000 0.0000 0.0690 -0.5800 0.1394 0.0000 0.2146 0.0000 0.2543 0.0000 0.0688 0.1588 0.0000 0.1936 0.0000

> <atom.prop.CLASS>
PRPC GEHC GEHC GEHC GEHC ACEC NCLA NCLA BENC BENC NCLA BENC BENC NCLA BENC NCLA BENC NCLA PRPC NCLA NCLA NCLA DMEO PRPC NCLA NCLA ACEC NCLA NCLA FORN NCLA PRPC NCLA PRPC NCLA NCLA PRPC NCLA NCLA GENA PRPC NCLA NCLA PRPC NCLA NCLA NCLA PRPC NCLA NCLA FORO FORO BENC NCLA BENC NCLA BENC NCLA BENC BENC NCLA BENC NCLA

> <cluster_id>
1

> <rmsd_to_cluster_rep>
0.00    

> <ligRMSD>
2.74    

> <ligCOMD>
0.68    

$$$$
ptp1b_wilson_35_495
     RDKit          3D

 60 63  0  0  0  0  0  0  0  0999 V2000
   44.5889   12.8165   -1.0248 S   0  0  0  0  0  0  0  0  0  0  0  0
   44.2933   13.9197    0.2683 C   0  0  0  0  0  0  0  0  0  0  0  0
   44.7041   13.3847    1.4624 C   0  0  0  0  0  0  0  0  0  0  0  0
   45.2004   12.0952    1.3047 C   0  0  0  0  0  0  0  0  0  0  0  0
   45.7096   11.1515    2.6793 Cl  0  0  0  0  0  0  0  0  0  0  0  0
   45.2286   11.5975    0.0166 C   0  0  0  0  0  0  0  0  0  0  0  0
   43.7401   15.2642   -0.1206 C   0  0  0  0  0  0  0  0  0  0  0  0
   43.7518   15.6052   -1.3367 O   0  0  0  0  0  0  0  0  0  0  0  0
   43.2973   15.9649    0.8337 O   0  0  0  0  0  0  0  0  0  0  0  0
   45.5165   10.2784   -0.5948 C   0  0  0  0  0  0  0  0  0  0  0  0
   46.6438    9.5399   -0.1591 C   0  0  0  0  0  0  0  0  0  0  0  0
   47.2974    9.9630    0.5910 H   0  0  0  0  0  0  0  0  0  0  0  0
   46.9573    8.2697   -0.6821 C   0  0  0  0  0  0  0  0  0  0  0  0
   46.1579    7.7378   -1.7059 C   0  0  0  0  0  0  0  0  0  0  0  0
   46.4097    6.7917   -2.1621 H   0  0  0  0  0  0  0  0  0  0  0  0
   45.0526    8.4582   -2.1770 C   0  0  0  0  0  0  0  0  0  0  0  0
   44.4439    8.0514   -2.9715 H   0  0  0  0  0  0  0  0  0  0  0  0
   44.7250    9.6991   -1.6163 C   0  0  0  0  0  0  0  0  0  0  0  0
   43.8534   10.2130   -1.9947 H   0  0  0  0  0  0  0  0  0  0  0  0
   44.5399   14.0142    2.6388 O   0  0  0  0  0  0  0  0  0  0  0  0
   45.7553   14.3326    3.3394 C   0  0  0  0  0  0  0  0  0  0  0  0
   46.0281   15.3917    3.1329 H   0  0  0  0  0  0  0  0  0  0  0  0
   46.5962   13.6773    3.0142 H   0  0  0  0  0  0  0  0  0  0  0  0
   45.6092   14.1693    4.8640 C   0  0  0  0  0  0  0  0  0  0  0  0
   44.5015   13.7668    5.3073 O   0  0  0  0  0  0  0  0  0  0  0  0
   46.6367   14.4585    5.5361 O   0  0  0  0  0  0  0  0  0  0  0  0
   48.2085    7.7124   -0.3195 N   0  0  0  0  0  0  0  0  0  0  0  0
   49.0101    8.1776   -0.7418 H   0  0  0  0  0  0  0  0  0  0  0  0
   48.5705    7.2200    1.0423 C   0  0  0  0  0  0  0  0  0  0  0  0
   47.8529    6.4356    1.3653 H   0  0  0  0  0  0  0  0  0  0  0  0
   49.9763    6.5839    0.9201 C   0  0  0  0  0  0  0  0  0  0  0  0
   50.6699    7.3104    0.4373 H   0  0  0  0  0  0  0  0  0  0  0  0
   49.9173    5.6895    0.2610 H   0  0  0  0  0  0  0  0  0  0  0  0
   50.5897    6.1635    2.2644 C   0  0  0  0  0  0  0  0  0  0  0  0
   51.6050    5.7478    2.0786 H   0  0  0  0  0  0  0  0  0  0  0  0
   49.9685    5.3776    2.7449 H   0  0  0  0  0  0  0  0  0  0  0  0
   50.6230    7.3581    3.1178 N   0  0  0  0  0  0  0  0  0  0  0  0
   49.2815    7.8849    3.4358 C   0  0  0  0  0  0  0  0  0  0  0  0
   49.3294    8.7535    4.1285 H   0  0  0  0  0  0  0  0  0  0  0  0
   48.6783    7.0847    3.9156 H   0  0  0  0  0  0  0  0  0  0  0  0
   48.6098    8.3349    2.1183 C   0  0  0  0  0  0  0  0  0  0  0  0
   47.5759    8.6803    2.3323 H   0  0  0  0  0  0  0  0  0  0  0  0
   49.1799    9.2035    1.7185 H   0  0  0  0  0  0  0  0  0  0  0  0
   51.8855    7.5765    4.1704 S   0  0  0  0  0  0  0  0  0  0  0  0
   51.5172    6.3515    5.4567 C   0  0  0  0  0  0  0  0  0  0  0  0
   51.4550    5.3496    4.9794 H   0  0  0  0  0  0  0  0  0  0  0  0
   50.5391    6.6118    5.9161 H   0  0  0  0  0  0  0  0  0  0  0  0
   53.1034    7.1836    3.5079 O   0  0  0  0  0  0  0  0  0  0  0  0
   51.7680    8.8926    4.7440 O   0  0  0  0  0  0  0  0  0  0  0  0
   54.5030    6.1524    8.5929 C   0  0  0  0  0  0  0  0  0  0  0  0
   55.2330    6.0808    9.3857 H   0  0  0  0  0  0  0  0  0  0  0  0
   53.3739    6.9658    8.7506 C   0  0  0  0  0  0  0  0  0  0  0  0
   53.2319    7.5199    9.6667 H   0  0  0  0  0  0  0  0  0  0  0  0
   52.4261    7.0585    7.7218 C   0  0  0  0  0  0  0  0  0  0  0  0
   51.5533    7.6804    7.8560 H   0  0  0  0  0  0  0  0  0  0  0  0
   52.5979    6.3396    6.5233 C   0  0  0  0  0  0  0  0  0  0  0  0
   53.7340    5.5209    6.3786 C   0  0  0  0  0  0  0  0  0  0  0  0
   53.8749    4.9527    5.4709 H   0  0  0  0  0  0  0  0  0  0  0  0
   54.6836    5.4315    7.4059 C   0  0  0  0  0  0  0  0  0  0  0  0
   55.5524    4.8016    7.2842 H   0  0  0  0  0  0  0  0  0  0  0  0
  1  2  1  0
  1  6  1  0
  2  3  2  0
  2  7  1  0
  3  4  1  0
  3 20  1  0
  4  5  1  0
  4  6  2  0
  6 10  1  0
  7  8  2  0
  7  9  1  0
 10 11  2  0
 10 18  1  0
 11 12  1  0
 11 13  1  0
 13 14  2  0
 13 27  1  0
 14 15  1  0
 14 16  1  0
 16 17  1  0
 16 18  2  0
 18 19  1  0
 20 21  1  0
 21 22  1  0
 21 23  1  0
 21 24  1  0
 24 25  2  0
 24 26  1  0
 27 28  1  0
 27 29  1  0
 29 30  1  0
 29 31  1  0
 29 41  1  0
 31 32  1  0
 31 33  1  0
 31 34  1  0
 34 35  1  0
 34 36  1  0
 34 37  1  0
 37 38  1  0
 37 44  1  0
 38 39  1  0
 38 40  1  0
 38 41  1  0
 41 42  1  0
 41 43  1  0
 44 45  1  0
 44 48  2  0
 44 49  2  0
 45 46  1  0
 45 47  1  0
 45 56  1  0
 50 51  1  0
 50 52  2  0
 50 59  1  0
 52 53  1  0
 52 54  1  0
 54 55  1  0
 54 56  2  0
 56 57  1  0
 57 58  1  0
 57 59  2  0
 59 60  1  0
M  CHG  2   9  -1  26  -1
M  END
> <intraLJ>
23.165    

> <intraEL>
8.413     

> <intraDihe>
47.346    

> <interLJ>
0.000     

> <interEJ>
0.000     

> <gridLJ>
-4.333    

> <gridEL>
0.000     

> <totalE>
74.592    

> <LGFE>
-4.333  

> <LE>
-0.117  

> <SMILES>
O=C([O-])COc1c(C(=O)[O-])sc(-c2cccc(NC3CCN(S(=O)(=O)Cc4ccccc4)CC3)c2)c1Cl

> <atom.dprop.GFE>
-0.5335 -0.0636 0.1032 -0.1698 0.6020 -0.2474 -0.6510 0.0000 0.0000 -0.1997 -0.1904 0.0000 -0.0798 0.0180 0.0000 -0.0818 0.0000 -0.1369 0.0000 -0.2020 0.7443 0.0000 0.0000 -3.0450 0.0000 0.0000 -0.0130 0.0000 -0.3387 0.0000 -0.1612 0.0000 0.0000 -0.2058 0.0000 0.0000 0.1920 -0.3973 0.0000 0.0000 -0.2524 0.0000 0.0000 0.0000 0.5038 0.0000 0.0000 -0.2190 -0.3930 0.1642 0.0000 0.1936 0.0000 0.3221 0.0000 0.2193 0.0959 0.0000 0.0903 0.0000

> <atom.prop.CLASS>
PRPC GEHC GEHC GEHC CLBX GEHC ACEC NCLA NCLA BENC BENC NCLA BENC BENC NCLA BENC NCLA BENC NCLA DMEO PRPC NCLA NCLA ACEC NCLA NCLA FORN NCLA PRPC NCLA PRPC NCLA NCLA PRPC NCLA NCLA GENA PRPC NCLA NCLA PRPC NCLA NCLA NCLA PRPC NCLA NCLA FORO FORO BENC NCLA BENC NCLA BENC NCLA BENC BENC NCLA BENC NCLA

> <cluster_id>
1

> <rmsd_to_cluster_rep>
0.00    

> <ligRMSD>
2.77    

> <ligCOMD>
0.75    

$$$$
ptp1b_wilson_36_637
     RDKit          3D

 59 62  0  0  0  0  0  0  0  0999 V2000
   43.9287   12.0504   -0.8168 S   0  0  0  0  0  0  0  0  0  0  0  0
   43.8586   13.7129   -0.3656 C   0  0  0  0  0  0  0  0  0  0  0  0
   44.6383   13.9508    0.7384 C   0  0  0  0  0  0  0  0  0  0  0  0
   45.2301   12.7855    1.2121 C   0  0  0  0  0  0  0  0  0  0  0  0
   44.9782   11.6351    0.4903 C   0  0  0  0  0  0  0  0  0  0  0  0
   43.0460   14.6033   -1.2631 C   0  0  0  0  0  0  0  0  0  0  0  0
   42.8072   14.2321   -2.4466 O   0  0  0  0  0  0  0  0  0  0  0  0
   42.6585   15.6870   -0.7409 O   0  0  0  0  0  0  0  0  0  0  0  0
   45.2765   10.1969    0.6595 C   0  0  0  0  0  0  0  0  0  0  0  0
   46.5622    9.7928    1.0873 C   0  0  0  0  0  0  0  0  0  0  0  0
   47.3297   10.5293    1.2750 H   0  0  0  0  0  0  0  0  0  0  0  0
   46.8976    8.4441    1.2895 C   0  0  0  0  0  0  0  0  0  0  0  0
   45.9329    7.4542    1.0186 C   0  0  0  0  0  0  0  0  0  0  0  0
   46.1404    6.4051    1.1529 H   0  0  0  0  0  0  0  0  0  0  0  0
   44.6591    7.8242    0.5749 C   0  0  0  0  0  0  0  0  0  0  0  0
   43.9183    7.0644    0.3713 H   0  0  0  0  0  0  0  0  0  0  0  0
   44.3297    9.1738    0.4173 C   0  0  0  0  0  0  0  0  0  0  0  0
   43.3272    9.4153    0.0950 H   0  0  0  0  0  0  0  0  0  0  0  0
   46.3041   12.8255    2.7935 Br  0  0  0  0  0  0  0  0  0  0  0  0
   44.7215   15.1552    1.3289 O   0  0  0  0  0  0  0  0  0  0  0  0
   45.6895   16.0615    0.7694 C   0  0  0  0  0  0  0  0  0  0  0  0
   45.2595   16.5417   -0.1378 H   0  0  0  0  0  0  0  0  0  0  0  0
   46.6271   15.5318    0.4832 H   0  0  0  0  0  0  0  0  0  0  0  0
   46.0708   17.1753    1.7634 C   0  0  0  0  0  0  0  0  0  0  0  0
   45.5250   17.1532    2.8981 O   0  0  0  0  0  0  0  0  0  0  0  0
   46.9093   18.0176    1.3411 O   0  0  0  0  0  0  0  0  0  0  0  0
   48.1967    8.1571    1.7686 O   0  0  0  0  0  0  0  0  0  0  0  0
   48.6348    6.8069    1.9115 C   0  0  0  0  0  0  0  0  0  0  0  0
   48.2725    6.1656    1.0774 H   0  0  0  0  0  0  0  0  0  0  0  0
   50.1748    6.7950    1.8575 C   0  0  0  0  0  0  0  0  0  0  0  0
   50.5711    7.4941    2.6279 H   0  0  0  0  0  0  0  0  0  0  0  0
   50.5109    7.1626    0.8638 H   0  0  0  0  0  0  0  0  0  0  0  0
   50.7478    5.3917    2.1038 C   0  0  0  0  0  0  0  0  0  0  0  0
   51.8585    5.4526    2.0738 H   0  0  0  0  0  0  0  0  0  0  0  0
   50.4093    4.6932    1.3085 H   0  0  0  0  0  0  0  0  0  0  0  0
   50.2509    4.9301    3.4129 N   0  0  0  0  0  0  0  0  0  0  0  0
   48.7802    4.8285    3.5052 C   0  0  0  0  0  0  0  0  0  0  0  0
   48.4470    4.4656    4.5027 H   0  0  0  0  0  0  0  0  0  0  0  0
   48.4078    4.1242    2.7304 H   0  0  0  0  0  0  0  0  0  0  0  0
   48.1904    6.2306    3.2711 C   0  0  0  0  0  0  0  0  0  0  0  0
   47.0825    6.1749    3.3180 H   0  0  0  0  0  0  0  0  0  0  0  0
   48.5289    6.9119    4.0833 H   0  0  0  0  0  0  0  0  0  0  0  0
   51.1811    3.8828    4.2943 S   0  0  0  0  0  0  0  0  0  0  0  0
   50.9761    2.3246    3.3782 C   0  0  0  0  0  0  0  0  0  0  0  0
   51.3061    2.4956    2.3307 H   0  0  0  0  0  0  0  0  0  0  0  0
   49.8992    2.0510    3.3918 H   0  0  0  0  0  0  0  0  0  0  0  0
   52.5545    4.3041    4.1901 O   0  0  0  0  0  0  0  0  0  0  0  0
   50.5701    3.7339    5.5902 O   0  0  0  0  0  0  0  0  0  0  0  0
   53.2005   -1.0341    4.9957 C   0  0  0  0  0  0  0  0  0  0  0  0
   53.7430   -1.8861    5.3783 H   0  0  0  0  0  0  0  0  0  0  0  0
   51.9119   -0.7539    5.4667 C   0  0  0  0  0  0  0  0  0  0  0  0
   51.4594   -1.3915    6.2118 H   0  0  0  0  0  0  0  0  0  0  0  0
   51.2047    0.3480    4.9654 C   0  0  0  0  0  0  0  0  0  0  0  0
   50.2055    0.5472    5.3239 H   0  0  0  0  0  0  0  0  0  0  0  0
   51.7810    1.1895    3.9943 C   0  0  0  0  0  0  0  0  0  0  0  0
   53.0808    0.9006    3.5336 C   0  0  0  0  0  0  0  0  0  0  0  0
   53.5364    1.5255    2.7797 H   0  0  0  0  0  0  0  0  0  0  0  0
   53.7841   -0.2076    4.0277 C   0  0  0  0  0  0  0  0  0  0  0  0
   54.7770   -0.4237    3.6617 H   0  0  0  0  0  0  0  0  0  0  0  0
  1  2  1  0
  1  5  1  0
  2  3  2  0
  2  6  1  0
  3  4  1  0
  3 20  1  0
  4  5  2  0
  4 19  1  0
  5  9  1  0
  6  7  2  0
  6  8  1  0
  9 10  2  0
  9 17  1  0
 10 11  1  0
 10 12  1  0
 12 13  2  0
 12 27  1  0
 13 14  1  0
 13 15  1  0
 15 16  1  0
 15 17  2  0
 17 18  1  0
 20 21  1  0
 21 22  1  0
 21 23  1  0
 21 24  1  0
 24 25  2  0
 24 26  1  0
 27 28  1  0
 28 29  1  0
 28 30  1  0
 28 40  1  0
 30 31  1  0
 30 32  1  0
 30 33  1  0
 33 34  1  0
 33 35  1  0
 33 36  1  0
 36 37  1  0
 36 43  1  0
 37 38  1  0
 37 39  1  0
 37 40  1  0
 40 41  1  0
 40 42  1  0
 43 44  1  0
 43 47  2  0
 43 48  2  0
 44 45  1  0
 44 46  1  0
 44 55  1  0
 49 50  1  0
 49 51  2  0
 49 58  1  0
 51 52  1  0
 51 53  1  0
 53 54  1  0
 53 55  2  0
 55 56  1  0
 56 57  1  0
 56 58  2  0
 58 59  1  0
M  CHG  2   8  -1  26  -1
M  END
> <intraLJ>
21.519    

> <intraEL>
8.013     

> <intraDihe>
44.419    

> <interLJ>
0.000     

> <interEJ>
0.000     

> <gridLJ>
-8.295    

> <gridEL>
0.000     

> <totalE>
65.656    

> <LGFE>
-8.295  

> <LE>
-0.224  

> <SMILES>
O=C([O-])COc1c(C(=O)[O-])sc(-c2cccc(OC3CCN(S(=O)(=O)Cc4ccccc4)CC3)c2)c1Br

> <atom.dprop.GFE>
-0.5558 -0.0386 -0.0333 -0.0699 -0.2474 -1.0020 0.0000 0.0000 -0.2627 -0.1558 0.0000 -0.1353 -0.0443 0.0000 0.0199 0.0000 -0.2513 0.0000 0.1600 0.5500 0.5691 0.0000 0.0000 -2.6910 0.0000 0.0000 -1.2010 -0.5318 0.0000 -0.3347 0.0000 0.0000 -0.2058 0.0000 0.0000 -0.1260 -0.4915 0.0000 0.0000 -0.6660 0.0000 0.0000 0.0000 0.0143 0.0000 0.0000 -0.2830 -0.2190 0.0219 0.0000 -0.0695 0.0000 -0.0855 0.0000 -0.0456 0.0459 0.0000 0.0710 0.0000

> <atom.prop.CLASS>
PRPC GEHC GEHC GEHC GEHC ACEC NCLA NCLA BENC BENC NCLA BENC BENC NCLA BENC NCLA BENC NCLA BRBX DMEO PRPC NCLA NCLA ACEC NCLA NCLA DMEO PRPC NCLA PRPC NCLA NCLA PRPC NCLA NCLA GENA PRPC NCLA NCLA PRPC NCLA NCLA NCLA PRPC NCLA NCLA FORO FORO BENC NCLA BENC NCLA BENC NCLA BENC BENC NCLA BENC NCLA

> <cluster_id>
1

> <rmsd_to_cluster_rep>
0.00    

> <ligRMSD>
2.54    

> <ligCOMD>
1.05    

$$$$
ptp1b_wilson_37_366
     RDKit          3D

 63 66  0  0  0  0  0  0  0  0999 V2000
   43.3256   12.6734   -0.7879 S   0  0  0  0  0  0  0  0  0  0  0  0
   43.6148   14.1474    0.0560 C   0  0  0  0  0  0  0  0  0  0  0  0
   44.7275   14.0420    0.8515 C   0  0  0  0  0  0  0  0  0  0  0  0
   45.2858   12.7712    0.7921 C   0  0  0  0  0  0  0  0  0  0  0  0
   44.6698   11.8761   -0.0588 C   0  0  0  0  0  0  0  0  0  0  0  0
   42.6849   15.2819   -0.2680 C   0  0  0  0  0  0  0  0  0  0  0  0
   42.6762   15.7569   -1.4384 O   0  0  0  0  0  0  0  0  0  0  0  0
   41.9664   15.6810    0.6920 O   0  0  0  0  0  0  0  0  0  0  0  0
   44.8018   10.4369   -0.3532 C   0  0  0  0  0  0  0  0  0  0  0  0
   46.0740    9.9107   -0.6728 C   0  0  0  0  0  0  0  0  0  0  0  0
   46.9328   10.5648   -0.7216 H   0  0  0  0  0  0  0  0  0  0  0  0
   46.2549    8.5402   -0.9163 C   0  0  0  0  0  0  0  0  0  0  0  0
   45.1520    7.6770   -0.9113 C   0  0  0  0  0  0  0  0  0  0  0  0
   45.2580    6.6256   -1.1326 H   0  0  0  0  0  0  0  0  0  0  0  0
   43.8821    8.1771   -0.6249 C   0  0  0  0  0  0  0  0  0  0  0  0
   43.0305    7.5122   -0.6159 H   0  0  0  0  0  0  0  0  0  0  0  0
   43.7125    9.5317   -0.3253 C   0  0  0  0  0  0  0  0  0  0  0  0
   42.7170    9.8730   -0.0822 H   0  0  0  0  0  0  0  0  0  0  0  0
   46.7951   12.3279    1.8787 Br  0  0  0  0  0  0  0  0  0  0  0  0
   45.1460   15.0322    1.6564 O   0  0  0  0  0  0  0  0  0  0  0  0
   45.3020   16.3163    1.0269 C   0  0  0  0  0  0  0  0  0  0  0  0
   44.3164   16.8326    1.0017 H   0  0  0  0  0  0  0  0  0  0  0  0
   45.6797   16.2174   -0.0169 H   0  0  0  0  0  0  0  0  0  0  0  0
   46.2907   17.2150    1.7925 C   0  0  0  0  0  0  0  0  0  0  0  0
   46.8325   16.7394    2.8250 O   0  0  0  0  0  0  0  0  0  0  0  0
   46.4687   18.3631    1.3016 O   0  0  0  0  0  0  0  0  0  0  0  0
   47.5536    8.0838   -1.1790 N   0  0  0  0  0  0  0  0  0  0  0  0
   47.9571    6.7633   -0.6498 C   0  0  0  0  0  0  0  0  0  0  0  0
   47.2330    5.9896   -0.9911 H   0  0  0  0  0  0  0  0  0  0  0  0
   48.9667    6.4848   -1.0219 H   0  0  0  0  0  0  0  0  0  0  0  0
   48.2837    8.7756   -1.0157 H   0  0  0  0  0  0  0  0  0  0  0  0
   49.2302    6.3174    3.4434 N   0  0  0  0  0  0  0  0  0  0  0  0
   49.1642    7.7022    2.9448 C   0  0  0  0  0  0  0  0  0  0  0  0
   50.0123    8.3271    3.2997 H   0  0  0  0  0  0  0  0  0  0  0  0
   48.2215    8.1609    3.3155 H   0  0  0  0  0  0  0  0  0  0  0  0
   49.1432    7.6673    1.4125 C   0  0  0  0  0  0  0  0  0  0  0  0
   49.0118    8.7073    1.0413 H   0  0  0  0  0  0  0  0  0  0  0  0
   50.1106    7.2945    1.0170 H   0  0  0  0  0  0  0  0  0  0  0  0
   48.0002    6.7764    0.8827 C   0  0  0  0  0  0  0  0  0  0  0  0
   47.0396    7.2172    1.2458 H   0  0  0  0  0  0  0  0  0  0  0  0
   48.0898    5.3691    1.4947 C   0  0  0  0  0  0  0  0  0  0  0  0
   48.9936    4.8528    1.1122 H   0  0  0  0  0  0  0  0  0  0  0  0
   47.2047    4.7742    1.1784 H   0  0  0  0  0  0  0  0  0  0  0  0
   48.1136    5.4472    3.0273 C   0  0  0  0  0  0  0  0  0  0  0  0
   48.1817    4.4256    3.4594 H   0  0  0  0  0  0  0  0  0  0  0  0
   47.1663    5.9063    3.3861 H   0  0  0  0  0  0  0  0  0  0  0  0
   50.6471    5.6812    4.0090 S   0  0  0  0  0  0  0  0  0  0  0  0
   51.5667    5.2407    2.5038 C   0  0  0  0  0  0  0  0  0  0  0  0
   50.9118    4.6130    1.8650 H   0  0  0  0  0  0  0  0  0  0  0  0
   51.8392    6.1753    1.9711 H   0  0  0  0  0  0  0  0  0  0  0  0
   51.3622    6.7388    4.6757 O   0  0  0  0  0  0  0  0  0  0  0  0
   50.3287    4.4693    4.7189 O   0  0  0  0  0  0  0  0  0  0  0  0
   55.2412    3.0549    3.2198 C   0  0  0  0  0  0  0  0  0  0  0  0
   56.1622    2.5109    3.3692 H   0  0  0  0  0  0  0  0  0  0  0  0
   54.0429    2.3613    3.0100 C   0  0  0  0  0  0  0  0  0  0  0  0
   54.0402    1.2814    2.9954 H   0  0  0  0  0  0  0  0  0  0  0  0
   52.8470    3.0676    2.8189 C   0  0  0  0  0  0  0  0  0  0  0  0
   51.9299    2.5237    2.6473 H   0  0  0  0  0  0  0  0  0  0  0  0
   52.8383    4.4761    2.8263 C   0  0  0  0  0  0  0  0  0  0  0  0
   54.0499    5.1618    3.0342 C   0  0  0  0  0  0  0  0  0  0  0  0
   54.0634    6.2418    3.0322 H   0  0  0  0  0  0  0  0  0  0  0  0
   55.2435    4.4552    3.2352 C   0  0  0  0  0  0  0  0  0  0  0  0
   56.1674    4.9915    3.3945 H   0  0  0  0  0  0  0  0  0  0  0  0
  1  2  1  0
  1  5  1  0
  2  3  2  0
  2  6  1  0
  3  4  1  0
  3 20  1  0
  4  5  2  0
  4 19  1  0
  5  9  1  0
  6  7  2  0
  6  8  1  0
  9 10  2  0
  9 17  1  0
 10 11  1  0
 10 12  1  0
 12 13  2  0
 12 27  1  0
 13 14  1  0
 13 15  1  0
 15 16  1  0
 15 17  2  0
 17 18  1  0
 20 21  1  0
 21 22  1  0
 21 23  1  0
 21 24  1  0
 24 25  2  0
 24 26  1  0
 27 28  1  0
 27 31  1  0
 28 29  1  0
 28 30  1  0
 28 39  1  0
 32 33  1  0
 32 44  1  0
 32 47  1  0
 33 34  1  0
 33 35  1  0
 33 36  1  0
 36 37  1  0
 36 38  1  0
 36 39  1  0
 39 40  1  0
 39 41  1  0
 41 42  1  0
 41 43  1  0
 41 44  1  0
 44 45  1  0
 44 46  1  0
 47 48  1  0
 47 51  2  0
 47 52  2  0
 48 49  1  0
 48 50  1  0
 48 59  1  0
 53 54  1  0
 53 55  2  0
 53 62  1  0
 55 56  1  0
 55 57  1  0
 57 58  1  0
 57 59  2  0
 59 60  1  0
 60 61  1  0
 60 62  2  0
 62 63  1  0
M  CHG  2   8  -1  26  -1
M  END
> <intraLJ>
21.532    

> <intraEL>
8.829     

> <intraDihe>
44.227    

> <interLJ>
0.000     

> <interEJ>
0.000     

> <gridLJ>
-7.147    

> <gridEL>
0.000     

> <totalE>
67.441    

> <LGFE>
-7.147  

> <LE>
-0.188  

> <SMILES>
O=C([O-])COc1c(C(=O)[O-])sc(-c2cccc(NCC3CCN(S(=O)(=O)Cc4ccccc4)CC3)c2)c1Br

> <atom.dprop.GFE>
-0.5278 -0.0636 0.1032 -0.0699 -0.2474 -0.9440 0.0000 0.0000 -0.2154 -0.1890 0.0000 -0.1413 -0.0177 0.0000 -0.0691 0.0000 -0.1900 0.0000 0.2140 0.5500 0.8715 0.0000 0.0000 -2.6910 0.0000 0.0000 -0.0130 -0.0236 0.0000 0.0000 0.0000 -0.9200 -0.3973 0.0000 0.0000 -0.3387 0.0000 0.0000 -0.5092 0.0000 -0.4572 0.0000 0.0000 -0.6520 0.0000 0.0000 0.0000 -0.0310 0.0000 0.0000 0.2170 -0.3830 -0.0342 0.0000 -0.0463 0.0000 0.0020 0.0000 -0.0778 -0.0254 0.0000 0.1700 0.0000

> <atom.prop.CLASS>
PRPC GEHC GEHC GEHC GEHC ACEC NCLA NCLA BENC BENC NCLA BENC BENC NCLA BENC NCLA BENC NCLA BRBX DMEO PRPC NCLA NCLA ACEC NCLA NCLA FORN PRPC NCLA NCLA NCLA GENA PRPC NCLA NCLA PRPC NCLA NCLA PRPC NCLA PRPC NCLA NCLA PRPC NCLA NCLA NCLA PRPC NCLA NCLA FORO FORO BENC NCLA BENC NCLA BENC NCLA BENC BENC NCLA BENC NCLA

> <cluster_id>
1

> <rmsd_to_cluster_rep>
0.00    

> <ligRMSD>
3.61    

> <ligCOMD>
0.74    

$$$$
ptp1b_wilson_38_327
     RDKit          3D

 60 63  0  0  0  0  0  0  0  0999 V2000
   44.0765   12.4141   -0.9119 S   0  0  0  0  0  0  0  0  0  0  0  0
   44.0262   14.0823   -0.4836 C   0  0  0  0  0  0  0  0  0  0  0  0
   44.7616   14.3156    0.6510 C   0  0  0  0  0  0  0  0  0  0  0  0
   45.3045   13.1440    1.1639 C   0  0  0  0  0  0  0  0  0  0  0  0
   45.0545   11.9923    0.4455 C   0  0  0  0  0  0  0  0  0  0  0  0
   43.2796   14.9801   -1.4290 C   0  0  0  0  0  0  0  0  0  0  0  0
   42.4441   14.4738   -2.2296 O   0  0  0  0  0  0  0  0  0  0  0  0
   43.5622   16.2088   -1.3420 O   0  0  0  0  0  0  0  0  0  0  0  0
   45.2965   10.5505    0.6451 C   0  0  0  0  0  0  0  0  0  0  0  0
   46.5858   10.1069    1.0191 C   0  0  0  0  0  0  0  0  0  0  0  0
   47.3893   10.8198    1.1367 H   0  0  0  0  0  0  0  0  0  0  0  0
   46.8497    8.7477    1.2544 C   0  0  0  0  0  0  0  0  0  0  0  0
   45.8406    7.7961    1.0598 C   0  0  0  0  0  0  0  0  0  0  0  0
   46.0249    6.7416    1.2001 H   0  0  0  0  0  0  0  0  0  0  0  0
   44.5669    8.2067    0.6683 C   0  0  0  0  0  0  0  0  0  0  0  0
   43.7860    7.4744    0.5221 H   0  0  0  0  0  0  0  0  0  0  0  0
   44.2917    9.5649    0.4872 C   0  0  0  0  0  0  0  0  0  0  0  0
   43.2854    9.8417    0.2089 H   0  0  0  0  0  0  0  0  0  0  0  0
   46.3027   13.1753    2.7942 Br  0  0  0  0  0  0  0  0  0  0  0  0
   44.8470   15.5243    1.2306 O   0  0  0  0  0  0  0  0  0  0  0  0
   46.1330   16.1638    1.1456 C   0  0  0  0  0  0  0  0  0  0  0  0
   46.2389   16.6399    0.1453 H   0  0  0  0  0  0  0  0  0  0  0  0
   46.9632   15.4333    1.2831 H   0  0  0  0  0  0  0  0  0  0  0  0
   46.2997   17.2599    2.2148 C   0  0  0  0  0  0  0  0  0  0  0  0
   45.3364   17.4581    3.0013 O   0  0  0  0  0  0  0  0  0  0  0  0
   47.4065   17.8647    2.2022 O   0  0  0  0  0  0  0  0  0  0  0  0
   48.1420    8.3879    1.6627 N   0  0  0  0  0  0  0  0  0  0  0  0
   48.2911    7.4040    2.7574 C   0  0  0  0  0  0  0  0  0  0  0  0
   47.8112    7.7989    3.6809 H   0  0  0  0  0  0  0  0  0  0  0  0
   47.7954    6.4462    2.4872 H   0  0  0  0  0  0  0  0  0  0  0  0
   48.7738    9.1756    1.7986 H   0  0  0  0  0  0  0  0  0  0  0  0
   52.0196    5.4010    3.4281 N   0  0  0  0  0  0  0  0  0  0  0  0
   51.9296    6.1183    2.1487 C   0  0  0  0  0  0  0  0  0  0  0  0
   52.4034    5.5638    1.3103 H   0  0  0  0  0  0  0  0  0  0  0  0
   52.4515    7.0944    2.2525 H   0  0  0  0  0  0  0  0  0  0  0  0
   50.4421    6.3603    1.8695 C   0  0  0  0  0  0  0  0  0  0  0  0
   50.3459    6.9525    0.9339 H   0  0  0  0  0  0  0  0  0  0  0  0
   49.9246    5.3884    1.7118 H   0  0  0  0  0  0  0  0  0  0  0  0
   49.7706    7.1131    3.0391 C   0  0  0  0  0  0  0  0  0  0  0  0
   50.2930    8.0955    3.1451 H   0  0  0  0  0  0  0  0  0  0  0  0
   50.0010    6.3602    4.3621 C   0  0  0  0  0  0  0  0  0  0  0  0
   49.4639    5.3870    4.3341 H   0  0  0  0  0  0  0  0  0  0  0  0
   49.5880    6.9563    5.2048 H   0  0  0  0  0  0  0  0  0  0  0  0
   51.5010    6.1275    4.5961 C   0  0  0  0  0  0  0  0  0  0  0  0
   51.6695    5.5749    5.5456 H   0  0  0  0  0  0  0  0  0  0  0  0
   52.0240    7.1058    4.6674 H   0  0  0  0  0  0  0  0  0  0  0  0
   52.1479    3.7606    3.4672 S   0  0  0  0  0  0  0  0  0  0  0  0
   52.3021    3.3025    4.8250 O   0  0  0  0  0  0  0  0  0  0  0  0
   51.1868    3.1560    2.5798 O   0  0  0  0  0  0  0  0  0  0  0  0
   56.2461    3.1563    1.4603 C   0  0  0  0  0  0  0  0  0  0  0  0
   57.2078    3.0107    0.9902 H   0  0  0  0  0  0  0  0  0  0  0  0
   55.0747    2.7864    0.7899 C   0  0  0  0  0  0  0  0  0  0  0  0
   55.1327    2.3557   -0.1991 H   0  0  0  0  0  0  0  0  0  0  0  0
   53.8264    2.9753    1.3992 C   0  0  0  0  0  0  0  0  0  0  0  0
   52.9339    2.6853    0.8643 H   0  0  0  0  0  0  0  0  0  0  0  0
   53.7305    3.5313    2.6928 C   0  0  0  0  0  0  0  0  0  0  0  0
   54.9214    3.9062    3.3509 C   0  0  0  0  0  0  0  0  0  0  0  0
   54.8835    4.3417    4.3386 H   0  0  0  0  0  0  0  0  0  0  0  0
   56.1689    3.7175    2.7400 C   0  0  0  0  0  0  0  0  0  0  0  0
   57.0722    4.0058    3.2575 H   0  0  0  0  0  0  0  0  0  0  0  0
  1  2  1  0
  1  5  1  0
  2  3  2  0
  2  6  1  0
  3  4  1  0
  3 20  1  0
  4  5  2  0
  4 19  1  0
  5  9  1  0
  6  7  2  0
  6  8  1  0
  9 10  2  0
  9 17  1  0
 10 11  1  0
 10 12  1  0
 12 13  2  0
 12 27  1  0
 13 14  1  0
 13 15  1  0
 15 16  1  0
 15 17  2  0
 17 18  1  0
 20 21  1  0
 21 22  1  0
 21 23  1  0
 21 24  1  0
 24 25  2  0
 24 26  1  0
 27 28  1  0
 27 31  1  0
 28 29  1  0
 28 30  1  0
 28 39  1  0
 32 33  1  0
 32 44  1  0
 32 47  1  0
 33 34  1  0
 33 35  1  0
 33 36  1  0
 36 37  1  0
 36 38  1  0
 36 39  1  0
 39 40  1  0
 39 41  1  0
 41 42  1  0
 41 43  1  0
 41 44  1  0
 44 45  1  0
 44 46  1  0
 47 48  2  0
 47 49  2  0
 47 56  1  0
 50 51  1  0
 50 52  2  0
 50 59  1  0
 52 53  1  0
 52 54  1  0
 54 55  1  0
 54 56  2  0
 56 57  1  0
 57 58  1  0
 57 59  2  0
 59 60  1  0
M  CHG  2   8  -1  26  -1
M  END
> <intraLJ>
23.250    

> <intraEL>
10.208    

> <intraDihe>
33.972    

> <interLJ>
0.000     

> <interEJ>
0.000     

> <gridLJ>
-5.852    

> <gridEL>
0.000     

> <totalE>
61.578    

> <LGFE>
-5.852  

> <LE>
-0.158  

> <SMILES>
O=C([O-])COc1c(C(=O)[O-])sc(-c2cccc(NCC3CCN(S(=O)(=O)c4ccccc4)CC3)c2)c1Br

> <atom.dprop.GFE>
-0.5278 -0.0386 0.1775 -0.0080 -0.2474 -1.0020 0.0000 0.0000 -0.2627 -0.1558 0.0000 -0.1353 -0.0443 0.0000 -0.1358 0.0000 -0.1855 0.0000 -0.4620 1.0610 0.5691 0.0000 0.0000 -2.6910 0.0000 0.0000 -0.2580 -0.5375 0.0000 0.0000 0.0000 0.0490 -0.0310 0.0000 0.0000 -0.1442 0.0000 0.0000 -0.3393 0.0000 0.0999 0.0000 0.0000 0.0143 0.0000 0.0000 0.0000 -0.2830 0.1140 -0.2213 0.0000 -0.1548 0.0000 -0.0733 0.0000 -0.0807 0.0239 0.0000 0.0586 0.0000

> <atom.prop.CLASS>
PRPC GEHC GEHC GEHC GEHC ACEC NCLA NCLA BENC BENC NCLA BENC BENC NCLA BENC NCLA BENC NCLA BRBX DMEO PRPC NCLA NCLA ACEC NCLA NCLA FORN PRPC NCLA NCLA NCLA GENA PRPC NCLA NCLA PRPC NCLA NCLA PRPC NCLA PRPC NCLA NCLA PRPC NCLA NCLA NCLA FORO FORO BENC NCLA BENC NCLA BENC NCLA BENC BENC NCLA BENC NCLA

> <cluster_id>
1

> <rmsd_to_cluster_rep>
0.00    

> <ligRMSD>
2.17    

> <ligCOMD>
0.75    

$$$$
ptp1b_wilson_39_1168
     RDKit          3D

 61 64  0  0  0  0  0  0  0  0999 V2000
   44.1473   12.8167   -1.7987 S   0  0  0  0  0  0  0  0  0  0  0  0
   43.7624   14.4156   -1.2840 C   0  0  0  0  0  0  0  0  0  0  0  0
   44.0368   14.5767    0.0508 C   0  0  0  0  0  0  0  0  0  0  0  0
   44.5043   13.4019    0.6268 C   0  0  0  0  0  0  0  0  0  0  0  0
   44.6499   12.3238   -0.2226 C   0  0  0  0  0  0  0  0  0  0  0  0
   43.2800   15.3511   -2.3558 C   0  0  0  0  0  0  0  0  0  0  0  0
   43.5872   15.1208   -3.5592 O   0  0  0  0  0  0  0  0  0  0  0  0
   42.5851   16.3250   -1.9485 O   0  0  0  0  0  0  0  0  0  0  0  0
   44.9804   10.8946   -0.0633 C   0  0  0  0  0  0  0  0  0  0  0  0
   46.1133   10.5181    0.6956 C   0  0  0  0  0  0  0  0  0  0  0  0
   46.7429   11.2757    1.1393 H   0  0  0  0  0  0  0  0  0  0  0  0
   46.4379    9.1667    0.8986 C   0  0  0  0  0  0  0  0  0  0  0  0
   45.6731    8.1659    0.2852 C   0  0  0  0  0  0  0  0  0  0  0  0
   45.9243    7.1207    0.3832 H   0  0  0  0  0  0  0  0  0  0  0  0
   44.5645    8.5130   -0.4846 C   0  0  0  0  0  0  0  0  0  0  0  0
   43.9702    7.7412   -0.9524 H   0  0  0  0  0  0  0  0  0  0  0  0
   44.2080    9.8550   -0.6357 C   0  0  0  0  0  0  0  0  0  0  0  0
   43.3271   10.0782   -1.2197 H   0  0  0  0  0  0  0  0  0  0  0  0
   44.8834   13.3283    2.4994 Br  0  0  0  0  0  0  0  0  0  0  0  0
   43.7810   15.7143    0.7180 O   0  0  0  0  0  0  0  0  0  0  0  0
   44.6847   16.8045    0.4622 C   0  0  0  0  0  0  0  0  0  0  0  0
   44.1240   17.6410   -0.0114 H   0  0  0  0  0  0  0  0  0  0  0  0
   45.5123   16.4984   -0.2184 H   0  0  0  0  0  0  0  0  0  0  0  0
   45.3239   17.3333    1.7602 C   0  0  0  0  0  0  0  0  0  0  0  0
   44.9772   16.7903    2.8423 O   0  0  0  0  0  0  0  0  0  0  0  0
   46.1500   18.2752    1.6144 O   0  0  0  0  0  0  0  0  0  0  0  0
   47.5576    8.8631    1.6861 N   0  0  0  0  0  0  0  0  0  0  0  0
   47.8242    7.4508    2.0362 C   0  0  0  0  0  0  0  0  0  0  0  0
   46.9196    7.0147    2.5168 H   0  0  0  0  0  0  0  0  0  0  0  0
   48.0593    6.8505    1.1323 H   0  0  0  0  0  0  0  0  0  0  0  0
   47.6846    9.4690    2.4954 H   0  0  0  0  0  0  0  0  0  0  0  0
   51.6231    6.4462    3.6619 N   0  0  0  0  0  0  0  0  0  0  0  0
   51.4630    7.8649    3.3625 C   0  0  0  0  0  0  0  0  0  0  0  0
   52.3799    8.3181    2.9230 H   0  0  0  0  0  0  0  0  0  0  0  0
   51.2409    8.4143    4.3036 H   0  0  0  0  0  0  0  0  0  0  0  0
   50.2825    8.0003    2.4002 C   0  0  0  0  0  0  0  0  0  0  0  0
   50.0950    9.0762    2.1974 H   0  0  0  0  0  0  0  0  0  0  0  0
   50.5343    7.5049    1.4371 H   0  0  0  0  0  0  0  0  0  0  0  0
   49.0147    7.3371    2.9943 C   0  0  0  0  0  0  0  0  0  0  0  0
   48.7566    7.9006    3.9241 H   0  0  0  0  0  0  0  0  0  0  0  0
   49.2886    5.8847    3.4386 C   0  0  0  0  0  0  0  0  0  0  0  0
   49.4968    5.2574    2.5448 H   0  0  0  0  0  0  0  0  0  0  0  0
   48.3949    5.4748    3.9558 H   0  0  0  0  0  0  0  0  0  0  0  0
   50.4957    5.8510    4.3800 C   0  0  0  0  0  0  0  0  0  0  0  0
   50.6805    4.8146    4.7351 H   0  0  0  0  0  0  0  0  0  0  0  0
   50.2764    6.4654    5.2813 H   0  0  0  0  0  0  0  0  0  0  0  0
   52.4483    5.7198    2.8406 C   0  0  0  0  0  0  0  0  0  0  0  0
   52.4957    4.3849    3.1667 N   0  0  0  0  0  0  0  0  0  0  0  0
   52.1333    4.0966    4.0469 H   0  0  0  0  0  0  0  0  0  0  0  0
   53.1237    6.2354    1.9520 O   0  0  0  0  0  0  0  0  0  0  0  0
   54.5449    1.2704    1.1699 C   0  0  0  0  0  0  0  0  0  0  0  0
   55.0612    0.4616    0.6743 H   0  0  0  0  0  0  0  0  0  0  0  0
   54.3432    1.2290    2.5555 C   0  0  0  0  0  0  0  0  0  0  0  0
   54.7030    0.3874    3.1287 H   0  0  0  0  0  0  0  0  0  0  0  0
   53.6712    2.2782    3.1967 C   0  0  0  0  0  0  0  0  0  0  0  0
   53.5156    2.2413    4.2647 H   0  0  0  0  0  0  0  0  0  0  0  0
   53.2083    3.3791    2.4598 C   0  0  0  0  0  0  0  0  0  0  0  0
   53.3988    3.4050    1.0687 C   0  0  0  0  0  0  0  0  0  0  0  0
   53.0194    4.2230    0.4758 H   0  0  0  0  0  0  0  0  0  0  0  0
   54.0710    2.3581    0.4263 C   0  0  0  0  0  0  0  0  0  0  0  0
   54.2174    2.3870   -0.6434 H   0  0  0  0  0  0  0  0  0  0  0  0
  1  2  1  0
  1  5  1  0
  2  3  2  0
  2  6  1  0
  3  4  1  0
  3 20  1  0
  4  5  2  0
  4 19  1  0
  5  9  1  0
  6  7  2  0
  6  8  1  0
  9 10  2  0
  9 17  1  0
 10 11  1  0
 10 12  1  0
 12 13  2  0
 12 27  1  0
 13 14  1  0
 13 15  1  0
 15 16  1  0
 15 17  2  0
 17 18  1  0
 20 21  1  0
 21 22  1  0
 21 23  1  0
 21 24  1  0
 24 25  2  0
 24 26  1  0
 27 28  1  0
 27 31  1  0
 28 29  1  0
 28 30  1  0
 28 39  1  0
 32 33  1  0
 32 44  1  0
 32 47  1  0
 33 34  1  0
 33 35  1  0
 33 36  1  0
 36 37  1  0
 36 38  1  0
 36 39  1  0
 39 40  1  0
 39 41  1  0
 41 42  1  0
 41 43  1  0
 41 44  1  0
 44 45  1  0
 44 46  1  0
 47 48  1  0
 47 50  2  0
 48 49  1  0
 48 57  1  0
 51 52  1  0
 51 53  2  0
 51 60  1  0
 53 54  1  0
 53 55  1  0
 55 56  1  0
 55 57  2  0
 57 58  1  0
 58 59  1  0
 58 60  2  0
 60 61  1  0
M  CHG  2   8  -1  26  -1
M  END
> <intraLJ>
26.552    

> <intraEL>
2.093     

> <intraDihe>
30.260    

> <interLJ>
0.000     

> <interEJ>
0.000     

> <gridLJ>
-7.041    

> <gridEL>
0.000     

> <totalE>
51.864    

> <LGFE>
-7.041  

> <LE>
-0.190  

> <SMILES>
O=C([O-])COc1c(C(=O)[O-])sc(-c2cccc(NCC3CCN(C(=O)Nc4ccccc4)CC3)c2)c1Br

> <atom.dprop.GFE>
-0.3803 -0.0040 0.1775 -0.0333 -0.2188 -1.4210 0.0000 0.0000 -0.2627 -0.2320 0.0000 -0.1558 -0.1695 0.0000 -0.1575 0.0000 -0.1900 0.0000 0.0650 0.3810 0.6673 0.0000 0.0000 -2.6910 0.0000 0.0000 -0.2580 -0.5821 0.0000 0.0000 0.0000 0.3826 0.0496 0.0000 0.0000 -0.2288 0.0000 0.0000 -0.3973 0.0000 -0.5764 0.0000 0.0000 -0.0826 0.0000 0.0000 0.0000 -0.2330 0.0000 -0.0490 -0.1099 0.0000 -0.1298 0.0000 -0.0463 0.0000 -0.0407 -0.0758 0.0000 -0.0386 0.0000

> <atom.prop.CLASS>
PRPC GEHC GEHC GEHC GEHC ACEC NCLA NCLA BENC BENC NCLA BENC BENC NCLA BENC NCLA BENC NCLA BRBX DMEO PRPC NCLA NCLA ACEC NCLA NCLA FORN PRPC NCLA NCLA NCLA GEHC PRPC NCLA NCLA PRPC NCLA NCLA PRPC NCLA PRPC NCLA NCLA PRPC NCLA NCLA NCLA FORN NCLA FORO BENC NCLA BENC NCLA BENC NCLA BENC BENC NCLA BENC NCLA

> <cluster_id>
1

> <rmsd_to_cluster_rep>
0.00    

> <ligRMSD>
2.97    

> <ligCOMD>
0.42    

$$$$
ptp1b_wilson_40_468
     RDKit          3D

 60 63  0  0  0  0  0  0  0  0999 V2000
   44.1027   12.6065   -1.6690 S   0  0  0  0  0  0  0  0  0  0  0  0
   43.8568   14.1313   -0.9027 C   0  0  0  0  0  0  0  0  0  0  0  0
   44.2994   14.1013    0.3963 C   0  0  0  0  0  0  0  0  0  0  0  0
   44.7799   12.8451    0.7478 C   0  0  0  0  0  0  0  0  0  0  0  0
   44.7763   11.8887   -0.2489 C   0  0  0  0  0  0  0  0  0  0  0  0
   43.2856   15.2167   -1.7704 C   0  0  0  0  0  0  0  0  0  0  0  0
   43.9138   15.5707   -2.8075 O   0  0  0  0  0  0  0  0  0  0  0  0
   42.1881   15.7026   -1.3747 O   0  0  0  0  0  0  0  0  0  0  0  0
   45.0708   10.4417   -0.3181 C   0  0  0  0  0  0  0  0  0  0  0  0
   46.1861    9.9105    0.3725 C   0  0  0  0  0  0  0  0  0  0  0  0
   46.8451   10.5601    0.9290 H   0  0  0  0  0  0  0  0  0  0  0  0
   46.4615    8.5332    0.3866 C   0  0  0  0  0  0  0  0  0  0  0  0
   45.6650    7.6635   -0.3754 C   0  0  0  0  0  0  0  0  0  0  0  0
   45.8797    6.6086   -0.4380 H   0  0  0  0  0  0  0  0  0  0  0  0
   44.5806    8.1665   -1.0971 C   0  0  0  0  0  0  0  0  0  0  0  0
   43.9657    7.4974   -1.6817 H   0  0  0  0  0  0  0  0  0  0  0  0
   44.2723    9.5288   -1.0474 C   0  0  0  0  0  0  0  0  0  0  0  0
   43.4061    9.8687   -1.5963 H   0  0  0  0  0  0  0  0  0  0  0  0
   45.3867   12.5100    2.5306 Br  0  0  0  0  0  0  0  0  0  0  0  0
   44.1801   15.1449    1.2351 O   0  0  0  0  0  0  0  0  0  0  0  0
   44.6327   16.4148    0.7298 C   0  0  0  0  0  0  0  0  0  0  0  0
   43.7597   16.9889    0.3470 H   0  0  0  0  0  0  0  0  0  0  0  0
   45.3674   16.2860   -0.0979 H   0  0  0  0  0  0  0  0  0  0  0  0
   45.3123   17.2549    1.8287 C   0  0  0  0  0  0  0  0  0  0  0  0
   45.4058   16.7424    2.9752 O   0  0  0  0  0  0  0  0  0  0  0  0
   45.7197   18.3940    1.4719 O   0  0  0  0  0  0  0  0  0  0  0  0
   47.5824    8.0850    1.0947 O   0  0  0  0  0  0  0  0  0  0  0  0
   47.5916    6.7268    1.5292 C   0  0  0  0  0  0  0  0  0  0  0  0
   46.5809    6.4479    1.8994 H   0  0  0  0  0  0  0  0  0  0  0  0
   47.9032    6.0216    0.7293 H   0  0  0  0  0  0  0  0  0  0  0  0
   51.1999    6.0100    3.6937 N   0  0  0  0  0  0  0  0  0  0  0  0
   50.8789    7.4223    3.5177 C   0  0  0  0  0  0  0  0  0  0  0  0
   51.7762    8.0402    3.2896 H   0  0  0  0  0  0  0  0  0  0  0  0
   50.4357    7.8170    4.4582 H   0  0  0  0  0  0  0  0  0  0  0  0
   49.8535    7.5262    2.3855 C   0  0  0  0  0  0  0  0  0  0  0  0
   49.5400    8.5850    2.2629 H   0  0  0  0  0  0  0  0  0  0  0  0
   50.3236    7.1922    1.4349 H   0  0  0  0  0  0  0  0  0  0  0  0
   48.6153    6.6417    2.6736 C   0  0  0  0  0  0  0  0  0  0  0  0
   48.1244    7.0562    3.5876 H   0  0  0  0  0  0  0  0  0  0  0  0
   49.0253    5.1942    3.0280 C   0  0  0  0  0  0  0  0  0  0  0  0
   49.4540    4.7034    2.1275 H   0  0  0  0  0  0  0  0  0  0  0  0
   48.1312    4.6189    3.3495 H   0  0  0  0  0  0  0  0  0  0  0  0
   50.0713    5.1985    4.1500 C   0  0  0  0  0  0  0  0  0  0  0  0
   50.3473    4.1588    4.4273 H   0  0  0  0  0  0  0  0  0  0  0  0
   49.6328    5.6678    5.0584 H   0  0  0  0  0  0  0  0  0  0  0  0
   52.2242    5.4991    2.9351 C   0  0  0  0  0  0  0  0  0  0  0  0
   52.4889    4.1754    3.1992 N   0  0  0  0  0  0  0  0  0  0  0  0
   52.0790    3.7578    4.0033 H   0  0  0  0  0  0  0  0  0  0  0  0
   52.8725    6.1838    2.1459 O   0  0  0  0  0  0  0  0  0  0  0  0
   55.3005    1.6369    1.3154 C   0  0  0  0  0  0  0  0  0  0  0  0
   56.0118    0.9728    0.8469 H   0  0  0  0  0  0  0  0  0  0  0  0
   54.9699    1.4700    2.6664 C   0  0  0  0  0  0  0  0  0  0  0  0
   55.4254    0.6761    3.2397 H   0  0  0  0  0  0  0  0  0  0  0  0
   54.0454    2.3311    3.2726 C   0  0  0  0  0  0  0  0  0  0  0  0
   53.7911    2.1971    4.3136 H   0  0  0  0  0  0  0  0  0  0  0  0
   53.4556    3.3705    2.5366 C   0  0  0  0  0  0  0  0  0  0  0  0
   53.7786    3.5194    1.1779 C   0  0  0  0  0  0  0  0  0  0  0  0
   53.3101    4.2863    0.5805 H   0  0  0  0  0  0  0  0  0  0  0  0
   54.7033    2.6610    0.5708 C   0  0  0  0  0  0  0  0  0  0  0  0
   54.9496    2.7850   -0.4735 H   0  0  0  0  0  0  0  0  0  0  0  0
  1  2  1  0
  1  5  1  0
  2  3  2  0
  2  6  1  0
  3  4  1  0
  3 20  1  0
  4  5  2  0
  4 19  1  0
  5  9  1  0
  6  7  2  0
  6  8  1  0
  9 10  2  0
  9 17  1  0
 10 11  1  0
 10 12  1  0
 12 13  2  0
 12 27  1  0
 13 14  1  0
 13 15  1  0
 15 16  1  0
 15 17  2  0
 17 18  1  0
 20 21  1  0
 21 22  1  0
 21 23  1  0
 21 24  1  0
 24 25  2  0
 24 26  1  0
 27 28  1  0
 28 29  1  0
 28 30  1  0
 28 38  1  0
 31 32  1  0
 31 43  1  0
 31 46  1  0
 32 33  1  0
 32 34  1  0
 32 35  1  0
 35 36  1  0
 35 37  1  0
 35 38  1  0
 38 39  1  0
 38 40  1  0
 40 41  1  0
 40 42  1  0
 40 43  1  0
 43 44  1  0
 43 45  1  0
 46 47  1  0
 46 49  2  0
 47 48  1  0
 47 56  1  0
 50 51  1  0
 50 52  2  0
 50 59  1  0
 52 53  1  0
 52 54  1  0
 54 55  1  0
 54 56  2  0
 56 57  1  0
 57 58  1  0
 57 59  2  0
 59 60  1  0
M  CHG  2   8  -1  26  -1
M  END
> <intraLJ>
25.771    

> <intraEL>
1.605     

> <intraDihe>
28.775    

> <interLJ>
0.000     

> <interEJ>
0.000     

> <gridLJ>
-8.067    

> <gridEL>
0.000     

> <totalE>
48.083    

> <LGFE>
-8.067  

> <LE>
-0.218  

> <SMILES>
O=C([O-])COc1c(C(=O)[O-])sc(-c2cccc(OCC3CCN(C(=O)Nc4ccccc4)CC3)c2)c1Br

> <atom.dprop.GFE>
-0.3803 -0.0386 -0.0636 -0.2188 -0.2474 -1.2330 0.0000 0.0000 -0.2154 -0.2325 0.0000 -0.1413 -0.0568 0.0000 -0.1575 0.0000 -0.1900 0.0000 0.5430 0.4590 0.6673 0.0000 0.0000 -2.6910 0.0000 0.0000 -1.0870 -0.5092 0.0000 0.0000 0.1435 0.0143 0.0000 0.0000 -0.2288 0.0000 0.0000 -0.5318 0.0000 -0.5764 0.0000 0.0000 -0.1835 0.0000 0.0000 0.0000 -0.2330 0.0000 -0.0490 -0.1785 0.0000 -0.1298 0.0000 -0.0463 0.0000 -0.0807 -0.0758 0.0000 -0.1179 0.0000

> <atom.prop.CLASS>
PRPC GEHC GEHC GEHC GEHC ACEC NCLA NCLA BENC BENC NCLA BENC BENC NCLA BENC NCLA BENC NCLA BRBX DMEO PRPC NCLA NCLA ACEC NCLA NCLA DMEO PRPC NCLA NCLA GEHC PRPC NCLA NCLA PRPC NCLA NCLA PRPC NCLA PRPC NCLA NCLA PRPC NCLA NCLA NCLA FORN NCLA FORO BENC NCLA BENC NCLA BENC NCLA BENC BENC NCLA BENC NCLA

> <cluster_id>
1

> <rmsd_to_cluster_rep>
0.00    

> <ligRMSD>
3.01    

> <ligCOMD>
0.43    

$$$$
ptp1b_wilson_41_265
     RDKit          3D

 60 63  0  0  0  0  0  0  0  0999 V2000
   44.3981   13.7060   -0.3894 S   0  0  0  0  0  0  0  0  0  0  0  0
   44.3449   15.1565    0.5429 C   0  0  0  0  0  0  0  0  0  0  0  0
   45.0251   14.9970    1.7230 C   0  0  0  0  0  0  0  0  0  0  0  0
   45.5277   13.7063    1.8581 C   0  0  0  0  0  0  0  0  0  0  0  0
   45.2985   12.8416    0.8039 C   0  0  0  0  0  0  0  0  0  0  0  0
   43.6639   16.3342   -0.1009 C   0  0  0  0  0  0  0  0  0  0  0  0
   42.5735   16.7521    0.3802 O   0  0  0  0  0  0  0  0  0  0  0  0
   44.2579   16.8220   -1.1044 O   0  0  0  0  0  0  0  0  0  0  0  0
   45.5092   11.3938    0.5573 C   0  0  0  0  0  0  0  0  0  0  0  0
   46.7554   10.8041    0.8805 C   0  0  0  0  0  0  0  0  0  0  0  0
   47.5464   11.4235    1.2795 H   0  0  0  0  0  0  0  0  0  0  0  0
   47.0072    9.4293    0.7034 C   0  0  0  0  0  0  0  0  0  0  0  0
   46.0094    8.6198    0.1388 C   0  0  0  0  0  0  0  0  0  0  0  0
   46.1912    7.5701   -0.0385 H   0  0  0  0  0  0  0  0  0  0  0  0
   44.7766    9.1813   -0.2216 C   0  0  0  0  0  0  0  0  0  0  0  0
   44.0103    8.5597   -0.6614 H   0  0  0  0  0  0  0  0  0  0  0  0
   44.5230   10.5408    0.0043 C   0  0  0  0  0  0  0  0  0  0  0  0
   43.5513   10.9278   -0.2658 H   0  0  0  0  0  0  0  0  0  0  0  0
   46.4314   13.2033    3.4637 Br  0  0  0  0  0  0  0  0  0  0  0  0
   45.0924   15.9597    2.6590 O   0  0  0  0  0  0  0  0  0  0  0  0
   45.4512   17.2664    2.1751 C   0  0  0  0  0  0  0  0  0  0  0  0
   44.5235   17.8417    1.9578 H   0  0  0  0  0  0  0  0  0  0  0  0
   46.0582   17.2043    1.2425 H   0  0  0  0  0  0  0  0  0  0  0  0
   46.2729   18.0629    3.2062 C   0  0  0  0  0  0  0  0  0  0  0  0
   46.5503   17.4977    4.2967 O   0  0  0  0  0  0  0  0  0  0  0  0
   46.5975   19.2288    2.8506 O   0  0  0  0  0  0  0  0  0  0  0  0
   48.3175    8.9888    1.0170 N   0  0  0  0  0  0  0  0  0  0  0  0
   49.0890    9.6305    0.8422 H   0  0  0  0  0  0  0  0  0  0  0  0
   48.7219    7.6070    1.4117 C   0  0  0  0  0  0  0  0  0  0  0  0
   48.3750    6.8930    0.6322 H   0  0  0  0  0  0  0  0  0  0  0  0
   50.2709    7.5635    1.4596 C   0  0  0  0  0  0  0  0  0  0  0  0
   50.6368    8.3638    2.1430 H   0  0  0  0  0  0  0  0  0  0  0  0
   50.6797    7.7726    0.4468 H   0  0  0  0  0  0  0  0  0  0  0  0
   50.8344    6.2179    1.9498 C   0  0  0  0  0  0  0  0  0  0  0  0
   51.9436    6.2903    1.9964 H   0  0  0  0  0  0  0  0  0  0  0  0
   50.5622    5.4062    1.2416 H   0  0  0  0  0  0  0  0  0  0  0  0
   50.2407    5.9414    3.2666 N   0  0  0  0  0  0  0  0  0  0  0  0
   48.7727    5.8014    3.2352 C   0  0  0  0  0  0  0  0  0  0  0  0
   48.3548    5.5426    4.2329 H   0  0  0  0  0  0  0  0  0  0  0  0
   48.4944    4.9995    2.5181 H   0  0  0  0  0  0  0  0  0  0  0  0
   48.1725    7.1486    2.7823 C   0  0  0  0  0  0  0  0  0  0  0  0
   47.0668    7.0531    2.7258 H   0  0  0  0  0  0  0  0  0  0  0  0
   48.4073    7.9217    3.5477 H   0  0  0  0  0  0  0  0  0  0  0  0
   51.1236    5.1396    4.4167 S   0  0  0  0  0  0  0  0  0  0  0  0
   51.1235    3.4410    3.7797 C   0  0  0  0  0  0  0  0  0  0  0  0
   51.7546    3.4101    2.8653 H   0  0  0  0  0  0  0  0  0  0  0  0
   50.0778    3.1625    3.5262 H   0  0  0  0  0  0  0  0  0  0  0  0
   52.4749    5.6381    4.3809 O   0  0  0  0  0  0  0  0  0  0  0  0
   50.3775    5.1630    5.6488 O   0  0  0  0  0  0  0  0  0  0  0  0
   52.6580    0.5233    6.5980 C   0  0  0  0  0  0  0  0  0  0  0  0
   53.2668   -0.6776    7.7032 Cl  0  0  0  0  0  0  0  0  0  0  0  0
   53.5267    1.1574    5.7009 C   0  0  0  0  0  0  0  0  0  0  0  0
   54.5744    0.8973    5.6931 H   0  0  0  0  0  0  0  0  0  0  0  0
   53.0374    2.1249    4.8119 C   0  0  0  0  0  0  0  0  0  0  0  0
   53.7141    2.6009    4.1177 H   0  0  0  0  0  0  0  0  0  0  0  0
   51.6733    2.4739    4.8140 C   0  0  0  0  0  0  0  0  0  0  0  0
   50.8076    1.8257    5.7155 C   0  0  0  0  0  0  0  0  0  0  0  0
   49.7556    2.0699    5.7220 H   0  0  0  0  0  0  0  0  0  0  0  0
   51.2982    0.8586    6.6042 C   0  0  0  0  0  0  0  0  0  0  0  0
   50.6271    0.3681    7.2931 H   0  0  0  0  0  0  0  0  0  0  0  0
  1  2  1  0
  1  5  1  0
  2  3  2  0
  2  6  1  0
  3  4  1  0
  3 20  1  0
  4  5  2  0
  4 19  1  0
  5  9  1  0
  6  7  2  0
  6  8  1  0
  9 10  2  0
  9 17  1  0
 10 11  1  0
 10 12  1  0
 12 13  2  0
 12 27  1  0
 13 14  1  0
 13 15  1  0
 15 16  1  0
 15 17  2  0
 17 18  1  0
 20 21  1  0
 21 22  1  0
 21 23  1  0
 21 24  1  0
 24 25  2  0
 24 26  1  0
 27 28  1  0
 27 29  1  0
 29 30  1  0
 29 31  1  0
 29 41  1  0
 31 32  1  0
 31 33  1  0
 31 34  1  0
 34 35  1  0
 34 36  1  0
 34 37  1  0
 37 38  1  0
 37 44  1  0
 38 39  1  0
 38 40  1  0
 38 41  1  0
 41 42  1  0
 41 43  1  0
 44 45  1  0
 44 48  2  0
 44 49  2  0
 45 46  1  0
 45 47  1  0
 45 56  1  0
 50 51  1  0
 50 52  2  0
 50 59  1  0
 52 53  1  0
 52 54  1  0
 54 55  1  0
 54 56  2  0
 56 57  1  0
 57 58  1  0
 57 59  2  0
 59 60  1  0
M  CHG  2   8  -1  26  -1
M  END
> <intraLJ>
20.372    

> <intraEL>
6.077     

> <intraDihe>
45.516    

> <interLJ>
0.000     

> <interEJ>
0.000     

> <gridLJ>
-5.128    

> <gridEL>
0.000     

> <totalE>
66.837    

> <LGFE>
-5.128  

> <LE>
-0.135  

> <SMILES>
O=C([O-])COc1c(C(=O)[O-])sc(-c2cccc(NC3CCN(S(=O)(=O)Cc4ccc(Cl)cc4)CC3)c2)c1Br

> <atom.dprop.GFE>
-0.3813 0.1775 0.4339 0.3303 -0.0699 -0.9950 0.0000 0.0000 -0.2483 -0.1884 0.0000 -0.1904 -0.1695 0.0000 -0.2513 0.0000 -0.2627 0.0000 -0.4620 1.9690 1.3443 0.0000 0.0000 -2.7610 0.0000 0.0000 -0.2580 0.0000 -0.3387 0.0000 -0.1312 0.0000 0.0000 -0.1442 0.0000 0.0000 -0.4430 -0.5764 0.0000 0.0000 -0.6660 0.0000 0.0000 0.0000 -0.1409 0.0000 0.0000 -0.3620 0.1900 -0.0155 -0.3360 0.0636 0.0000 -0.0155 0.0000 -0.0099 -0.0576 0.0000 -0.1618 0.0000

> <atom.prop.CLASS>
PRPC GEHC GEHC GEHC GEHC ACEC NCLA NCLA BENC BENC NCLA BENC BENC NCLA BENC NCLA BENC NCLA BRBX DMEO PRPC NCLA NCLA ACEC NCLA NCLA FORN NCLA PRPC NCLA PRPC NCLA NCLA PRPC NCLA NCLA GENA PRPC NCLA NCLA PRPC NCLA NCLA NCLA PRPC NCLA NCLA FORO FORO BENC CLBX BENC NCLA BENC NCLA BENC BENC NCLA BENC NCLA

> <cluster_id>
1

> <rmsd_to_cluster_rep>
0.00    

> <ligRMSD>
1.26    

> <ligCOMD>
0.94    

$$$$
ptp1b_wilson_42_578
     RDKit          3D

 60 63  0  0  0  0  0  0  0  0999 V2000
   44.1087   13.5403   -0.1345 S   0  0  0  0  0  0  0  0  0  0  0  0
   44.1000   15.0960    0.6110 C   0  0  0  0  0  0  0  0  0  0  0  0
   44.8655   15.0902    1.7488 C   0  0  0  0  0  0  0  0  0  0  0  0
   45.3965   13.8300    2.0068 C   0  0  0  0  0  0  0  0  0  0  0  0
   45.1056   12.8384    1.0883 C   0  0  0  0  0  0  0  0  0  0  0  0
   43.3566   16.1792   -0.1232 C   0  0  0  0  0  0  0  0  0  0  0  0
   42.9661   15.9642   -1.3050 O   0  0  0  0  0  0  0  0  0  0  0  0
   43.1809   17.2506    0.5240 O   0  0  0  0  0  0  0  0  0  0  0  0
   45.3202   11.3725    1.0096 C   0  0  0  0  0  0  0  0  0  0  0  0
   46.5956   10.8363    1.3108 C   0  0  0  0  0  0  0  0  0  0  0  0
   47.4037   11.5061    1.5698 H   0  0  0  0  0  0  0  0  0  0  0  0
   46.8555    9.4519    1.2888 C   0  0  0  0  0  0  0  0  0  0  0  0
   45.8322    8.5713    0.9052 C   0  0  0  0  0  0  0  0  0  0  0  0
   46.0171    7.5088    0.8477 H   0  0  0  0  0  0  0  0  0  0  0  0
   44.5678    9.0749    0.5697 C   0  0  0  0  0  0  0  0  0  0  0  0
   43.7815    8.3979    0.2689 H   0  0  0  0  0  0  0  0  0  0  0  0
   44.3100   10.4504    0.6419 C   0  0  0  0  0  0  0  0  0  0  0  0
   43.3153   10.7941    0.3982 H   0  0  0  0  0  0  0  0  0  0  0  0
   46.4205   13.5384    3.5924 Br  0  0  0  0  0  0  0  0  0  0  0  0
   44.9848   16.1633    2.5500 O   0  0  0  0  0  0  0  0  0  0  0  0
   46.3133   16.7044    2.6621 C   0  0  0  0  0  0  0  0  0  0  0  0
   46.3791   17.6363    2.0572 H   0  0  0  0  0  0  0  0  0  0  0  0
   47.0800   15.9851    2.2922 H   0  0  0  0  0  0  0  0  0  0  0  0
   46.6770   17.0564    4.1169 C   0  0  0  0  0  0  0  0  0  0  0  0
   45.8169   16.8276    5.0076 O   0  0  0  0  0  0  0  0  0  0  0  0
   47.8270   17.5484    4.2798 O   0  0  0  0  0  0  0  0  0  0  0  0
   48.1917    9.0625    1.5578 N   0  0  0  0  0  0  0  0  0  0  0  0
   48.9178    9.7730    1.4839 H   0  0  0  0  0  0  0  0  0  0  0  0
   48.6881    7.6698    1.7642 C   0  0  0  0  0  0  0  0  0  0  0  0
   48.4361    7.0605    0.8680 H   0  0  0  0  0  0  0  0  0  0  0  0
   50.2318    7.7314    1.8943 C   0  0  0  0  0  0  0  0  0  0  0  0
   50.5005    8.4413    2.7099 H   0  0  0  0  0  0  0  0  0  0  0  0
   50.6686    8.1229    0.9497 H   0  0  0  0  0  0  0  0  0  0  0  0
   50.8778    6.3703    2.2088 C   0  0  0  0  0  0  0  0  0  0  0  0
   51.9744    6.5145    2.3286 H   0  0  0  0  0  0  0  0  0  0  0  0
   50.7036    5.6595    1.3728 H   0  0  0  0  0  0  0  0  0  0  0  0
   50.2485    5.8532    3.4337 N   0  0  0  0  0  0  0  0  0  0  0  0
   48.7995    5.6148    3.2982 C   0  0  0  0  0  0  0  0  0  0  0  0
   48.3590    5.1770    4.2208 H   0  0  0  0  0  0  0  0  0  0  0  0
   48.6192    4.9138    2.4551 H   0  0  0  0  0  0  0  0  0  0  0  0
   48.1146    6.9682    3.0168 C   0  0  0  0  0  0  0  0  0  0  0  0
   47.0240    6.8024    2.8828 H   0  0  0  0  0  0  0  0  0  0  0  0
   48.2507    7.6300    3.9013 H   0  0  0  0  0  0  0  0  0  0  0  0
   51.1367    4.9514    4.5029 S   0  0  0  0  0  0  0  0  0  0  0  0
   51.2778    3.3638    3.6365 C   0  0  0  0  0  0  0  0  0  0  0  0
   52.0003    3.4836    2.8004 H   0  0  0  0  0  0  0  0  0  0  0  0
   50.2767    3.0943    3.2357 H   0  0  0  0  0  0  0  0  0  0  0  0
   52.4515    5.5321    4.6034 O   0  0  0  0  0  0  0  0  0  0  0  0
   50.3421    4.7533    5.6879 O   0  0  0  0  0  0  0  0  0  0  0  0
   52.6719    0.1229    6.1541 C   0  0  0  0  0  0  0  0  0  0  0  0
   53.0189   -0.7013    6.7591 H   0  0  0  0  0  0  0  0  0  0  0  0
   53.5932    0.9828    5.5439 C   0  0  0  0  0  0  0  0  0  0  0  0
   54.6524    0.8197    5.6771 H   0  0  0  0  0  0  0  0  0  0  0  0
   53.1413    2.0503    4.7559 C   0  0  0  0  0  0  0  0  0  0  0  0
   53.8584    2.7029    4.2799 H   0  0  0  0  0  0  0  0  0  0  0  0
   51.7631    2.2742    4.5762 C   0  0  0  0  0  0  0  0  0  0  0  0
   50.8464    1.3999    5.1920 C   0  0  0  0  0  0  0  0  0  0  0  0
   49.7861    1.5480    5.0528 H   0  0  0  0  0  0  0  0  0  0  0  0
   51.2988    0.3307    5.9790 C   0  0  0  0  0  0  0  0  0  0  0  0
   50.1603   -0.7477    6.7347 Cl  0  0  0  0  0  0  0  0  0  0  0  0
  1  2  1  0
  1  5  1  0
  2  3  2  0
  2  6  1  0
  3  4  1  0
  3 20  1  0
  4  5  2  0
  4 19  1  0
  5  9  1  0
  6  7  2  0
  6  8  1  0
  9 10  2  0
  9 17  1  0
 10 11  1  0
 10 12  1  0
 12 13  2  0
 12 27  1  0
 13 14  1  0
 13 15  1  0
 15 16  1  0
 15 17  2  0
 17 18  1  0
 20 21  1  0
 21 22  1  0
 21 23  1  0
 21 24  1  0
 24 25  2  0
 24 26  1  0
 27 28  1  0
 27 29  1  0
 29 30  1  0
 29 31  1  0
 29 41  1  0
 31 32  1  0
 31 33  1  0
 31 34  1  0
 34 35  1  0
 34 36  1  0
 34 37  1  0
 37 38  1  0
 37 44  1  0
 38 39  1  0
 38 40  1  0
 38 41  1  0
 41 42  1  0
 41 43  1  0
 44 45  1  0
 44 48  2  0
 44 49  2  0
 45 46  1  0
 45 47  1  0
 45 56  1  0
 50 51  1  0
 50 52  2  0
 50 59  1  0
 52 53  1  0
 52 54  1  0
 54 55  1  0
 54 56  2  0
 56 57  1  0
 57 58  1  0
 57 59  2  0
 59 60  1  0
M  CHG  2   8  -1  26  -1
M  END
> <intraLJ>
22.220    

> <intraEL>
7.475     

> <intraDihe>
44.002    

> <interLJ>
0.000     

> <interEJ>
0.000     

> <gridLJ>
-5.793    

> <gridEL>
0.000     

> <totalE>
67.904    

> <LGFE>
-5.793  

> <LE>
-0.152  

> <SMILES>
O=C([O-])COc1c(C(=O)[O-])sc(-c2cccc(NC3CCN(S(=O)(=O)Cc4cccc(Cl)c4)CC3)c2)c1Br

> <atom.dprop.GFE>
-0.3696 0.1775 0.4339 0.3303 -0.0699 -0.9950 0.0000 0.0000 -0.2251 -0.1884 0.0000 -0.1558 -0.1152 0.0000 -0.1358 0.0000 -0.2627 0.0000 -0.4620 1.9690 1.3443 0.0000 0.0000 -2.4740 0.0000 0.0000 -0.2580 0.0000 -0.4782 0.0000 -0.2288 0.0000 0.0000 -0.1442 0.0000 0.0000 -0.4430 -0.5764 0.0000 0.0000 -0.6660 0.0000 0.0000 0.0000 -0.1369 0.0000 0.0000 -0.3620 0.1900 -0.0043 0.0000 0.0636 0.0000 -0.0155 0.0000 -0.0576 -0.0576 0.0000 -0.1618 -1.2580

> <atom.prop.CLASS>
PRPC GEHC GEHC GEHC GEHC ACEC NCLA NCLA BENC BENC NCLA BENC BENC NCLA BENC NCLA BENC NCLA BRBX DMEO PRPC NCLA NCLA ACEC NCLA NCLA FORN NCLA PRPC NCLA PRPC NCLA NCLA PRPC NCLA NCLA GENA PRPC NCLA NCLA PRPC NCLA NCLA NCLA PRPC NCLA NCLA FORO FORO BENC NCLA BENC NCLA BENC NCLA BENC BENC NCLA BENC CLBX

> <cluster_id>
1

> <rmsd_to_cluster_rep>
0.00    

> <ligRMSD>
1.18    

> <ligCOMD>
0.83    

$$$$
ptp1b_wilson_43_279
     RDKit          3D

 60 63  0  0  0  0  0  0  0  0999 V2000
   43.9984   13.2714   -0.1154 S   0  0  0  0  0  0  0  0  0  0  0  0
   44.0367   14.8480    0.5837 C   0  0  0  0  0  0  0  0  0  0  0  0
   44.8461   14.8655    1.6907 C   0  0  0  0  0  0  0  0  0  0  0  0
   45.3722   13.6067    1.9648 C   0  0  0  0  0  0  0  0  0  0  0  0
   45.0344   12.5926    1.0879 C   0  0  0  0  0  0  0  0  0  0  0  0
   43.2774   15.9187   -0.1525 C   0  0  0  0  0  0  0  0  0  0  0  0
   43.5947   16.1877   -1.3450 O   0  0  0  0  0  0  0  0  0  0  0  0
   42.3562   16.4804    0.5061 O   0  0  0  0  0  0  0  0  0  0  0  0
   45.2292   11.1224    1.0439 C   0  0  0  0  0  0  0  0  0  0  0  0
   46.5057   10.5780    1.3257 C   0  0  0  0  0  0  0  0  0  0  0  0
   47.3286   11.2440    1.5444 H   0  0  0  0  0  0  0  0  0  0  0  0
   46.7478    9.1902    1.3349 C   0  0  0  0  0  0  0  0  0  0  0  0
   45.7038    8.3129    1.0031 C   0  0  0  0  0  0  0  0  0  0  0  0
   45.8741    7.2469    0.9698 H   0  0  0  0  0  0  0  0  0  0  0  0
   44.4372    8.8237    0.6876 C   0  0  0  0  0  0  0  0  0  0  0  0
   43.6348    8.1490    0.4266 H   0  0  0  0  0  0  0  0  0  0  0  0
   44.1983   10.2038    0.7288 C   0  0  0  0  0  0  0  0  0  0  0  0
   43.2016   10.5536    0.5024 H   0  0  0  0  0  0  0  0  0  0  0  0
   46.4544   13.3482    3.5172 Br  0  0  0  0  0  0  0  0  0  0  0  0
   45.0090   15.9598    2.4548 O   0  0  0  0  0  0  0  0  0  0  0  0
   45.3486   17.1635    1.7436 C   0  0  0  0  0  0  0  0  0  0  0  0
   44.4186   17.7387    1.5361 H   0  0  0  0  0  0  0  0  0  0  0  0
   45.8511   16.9378    0.7747 H   0  0  0  0  0  0  0  0  0  0  0  0
   46.2960   18.0692    2.5528 C   0  0  0  0  0  0  0  0  0  0  0  0
   46.6715   17.6622    3.6837 O   0  0  0  0  0  0  0  0  0  0  0  0
   46.6131   19.1537    1.9920 O   0  0  0  0  0  0  0  0  0  0  0  0
   48.0860    8.7909    1.5779 N   0  0  0  0  0  0  0  0  0  0  0  0
   48.8188    9.4889    1.4620 H   0  0  0  0  0  0  0  0  0  0  0  0
   48.5705    7.3998    1.8201 C   0  0  0  0  0  0  0  0  0  0  0  0
   48.2455    6.7524    0.9757 H   0  0  0  0  0  0  0  0  0  0  0  0
   50.1204    7.4366    1.8389 C   0  0  0  0  0  0  0  0  0  0  0  0
   50.4579    8.1814    2.5958 H   0  0  0  0  0  0  0  0  0  0  0  0
   50.4959    7.7707    0.8470 H   0  0  0  0  0  0  0  0  0  0  0  0
   50.7646    6.0809    2.1782 C   0  0  0  0  0  0  0  0  0  0  0  0
   51.8692    6.2085    2.2151 H   0  0  0  0  0  0  0  0  0  0  0  0
   50.5209    5.3324    1.3941 H   0  0  0  0  0  0  0  0  0  0  0  0
   50.2139    5.6383    3.4680 N   0  0  0  0  0  0  0  0  0  0  0  0
   48.7554    5.4207    3.4444 C   0  0  0  0  0  0  0  0  0  0  0  0
   48.3726    5.0372    4.4157 H   0  0  0  0  0  0  0  0  0  0  0  0
   48.5058    4.6829    2.6520 H   0  0  0  0  0  0  0  0  0  0  0  0
   48.0750    6.7724    3.1435 C   0  0  0  0  0  0  0  0  0  0  0  0
   46.9750    6.6222    3.0940 H   0  0  0  0  0  0  0  0  0  0  0  0
   48.2839    7.4740    3.9818 H   0  0  0  0  0  0  0  0  0  0  0  0
   51.1634    4.7781    4.5185 S   0  0  0  0  0  0  0  0  0  0  0  0
   51.2887    3.1681    3.6894 C   0  0  0  0  0  0  0  0  0  0  0  0
   51.6777    3.3382    2.6622 H   0  0  0  0  0  0  0  0  0  0  0  0
   50.2720    2.7272    3.6281 H   0  0  0  0  0  0  0  0  0  0  0  0
   52.4739    5.3767    4.5356 O   0  0  0  0  0  0  0  0  0  0  0  0
   50.4313    4.6089    5.7474 O   0  0  0  0  0  0  0  0  0  0  0  0
   54.0203    0.4288    5.6672 C   0  0  0  0  0  0  0  0  0  0  0  0
   54.7023   -0.2645    6.1372 H   0  0  0  0  0  0  0  0  0  0  0  0
   54.4974    1.3705    4.7489 C   0  0  0  0  0  0  0  0  0  0  0  0
   55.5498    1.4040    4.5080 H   0  0  0  0  0  0  0  0  0  0  0  0
   53.6102    2.2645    4.1355 C   0  0  0  0  0  0  0  0  0  0  0  0
   53.9879    2.9799    3.4196 H   0  0  0  0  0  0  0  0  0  0  0  0
   52.2343    2.2366    4.4363 C   0  0  0  0  0  0  0  0  0  0  0  0
   51.7664    1.2838    5.3718 C   0  0  0  0  0  0  0  0  0  0  0  0
   50.0791    1.1579    5.7801 Cl  0  0  0  0  0  0  0  0  0  0  0  0
   52.6569    0.3876    5.9764 C   0  0  0  0  0  0  0  0  0  0  0  0
   52.2871   -0.3408    6.6827 H   0  0  0  0  0  0  0  0  0  0  0  0
  1  2  1  0
  1  5  1  0
  2  3  2  0
  2  6  1  0
  3  4  1  0
  3 20  1  0
  4  5  2  0
  4 19  1  0
  5  9  1  0
  6  7  2  0
  6  8  1  0
  9 10  2  0
  9 17  1  0
 10 11  1  0
 10 12  1  0
 12 13  2  0
 12 27  1  0
 13 14  1  0
 13 15  1  0
 15 16  1  0
 15 17  2  0
 17 18  1  0
 20 21  1  0
 21 22  1  0
 21 23  1  0
 21 24  1  0
 24 25  2  0
 24 26  1  0
 27 28  1  0
 27 29  1  0
 29 30  1  0
 29 31  1  0
 29 41  1  0
 31 32  1  0
 31 33  1  0
 31 34  1  0
 34 35  1  0
 34 36  1  0
 34 37  1  0
 37 38  1  0
 37 44  1  0
 38 39  1  0
 38 40  1  0
 38 41  1  0
 41 42  1  0
 41 43  1  0
 44 45  1  0
 44 48  2  0
 44 49  2  0
 45 46  1  0
 45 47  1  0
 45 56  1  0
 50 51  1  0
 50 52  2  0
 50 59  1  0
 52 53  1  0
 52 54  1  0
 54 55  1  0
 54 56  2  0
 56 57  1  0
 57 58  1  0
 57 59  2  0
 59 60  1  0
M  CHG  2   8  -1  26  -1
M  END
> <intraLJ>
20.449    

> <intraEL>
5.713     

> <intraDihe>
44.680    

> <interLJ>
0.000     

> <interEJ>
0.000     

> <gridLJ>
-5.937    

> <gridEL>
0.000     

> <totalE>
64.905    

> <LGFE>
-5.937  

> <LE>
-0.156  

> <SMILES>
O=C([O-])COc1c(C(=O)[O-])sc(-c2cccc(NC3CCN(S(=O)(=O)Cc4ccccc4Cl)CC3)c2)c1Br

> <atom.dprop.GFE>
-0.3696 0.1775 0.4339 0.3303 -0.0699 -0.9020 0.0000 0.0000 -0.2290 -0.1884 0.0000 -0.1558 -0.1152 0.0000 -0.1358 0.0000 -0.2609 0.0000 -0.4620 1.9690 0.8715 0.0000 0.0000 -2.6910 0.0000 0.0000 -0.2580 0.0000 -0.4782 0.0000 -0.2288 0.0000 0.0000 -0.2058 0.0000 0.0000 -0.4430 -0.5764 0.0000 0.0000 -0.6660 0.0000 0.0000 0.0000 -0.1369 0.0000 0.0000 -0.3620 0.1900 0.0636 0.0000 0.1511 0.0000 -0.0284 0.0000 -0.0576 -0.0443 -1.0440 -0.0155 0.0000

> <atom.prop.CLASS>
PRPC GEHC GEHC GEHC GEHC ACEC NCLA NCLA BENC BENC NCLA BENC BENC NCLA BENC NCLA BENC NCLA BRBX DMEO PRPC NCLA NCLA ACEC NCLA NCLA FORN NCLA PRPC NCLA PRPC NCLA NCLA PRPC NCLA NCLA GENA PRPC NCLA NCLA PRPC NCLA NCLA NCLA PRPC NCLA NCLA FORO FORO BENC NCLA BENC NCLA BENC NCLA BENC BENC CLBX BENC NCLA

> <cluster_id>
1

> <rmsd_to_cluster_rep>
0.00    

> <ligRMSD>
1.55    

> <ligCOMD>
0.97    

$$$$
ptp1b_wilson_44_155
     RDKit          3D

 63 66  0  0  0  0  0  0  0  0999 V2000
   43.9137   13.1775   -0.3099 S   0  0  0  0  0  0  0  0  0  0  0  0
   43.9457   14.7932    0.2936 C   0  0  0  0  0  0  0  0  0  0  0  0
   44.7594   14.8814    1.3939 C   0  0  0  0  0  0  0  0  0  0  0  0
   45.2940   13.6442    1.7404 C   0  0  0  0  0  0  0  0  0  0  0  0
   44.9583   12.5777    0.9273 C   0  0  0  0  0  0  0  0  0  0  0  0
   43.1775   15.8139   -0.5022 C   0  0  0  0  0  0  0  0  0  0  0  0
   43.4121   15.9336   -1.7374 O   0  0  0  0  0  0  0  0  0  0  0  0
   42.3353   16.4908    0.1537 O   0  0  0  0  0  0  0  0  0  0  0  0
   45.1608   11.1086    0.9707 C   0  0  0  0  0  0  0  0  0  0  0  0
   46.4454   10.5894    1.2622 C   0  0  0  0  0  0  0  0  0  0  0  0
   47.2679   11.2719    1.4242 H   0  0  0  0  0  0  0  0  0  0  0  0
   46.6963    9.2061    1.3527 C   0  0  0  0  0  0  0  0  0  0  0  0
   45.6520    8.3046    1.0951 C   0  0  0  0  0  0  0  0  0  0  0  0
   45.8284    7.2395    1.1248 H   0  0  0  0  0  0  0  0  0  0  0  0
   44.3767    8.7883    0.7719 C   0  0  0  0  0  0  0  0  0  0  0  0
   43.5740    8.0946    0.5680 H   0  0  0  0  0  0  0  0  0  0  0  0
   44.1300   10.1670    0.7319 C   0  0  0  0  0  0  0  0  0  0  0  0
   43.1273   10.4971    0.5025 H   0  0  0  0  0  0  0  0  0  0  0  0
   46.3836   13.4850    3.3010 Br  0  0  0  0  0  0  0  0  0  0  0  0
   44.9191   16.0203    2.0905 O   0  0  0  0  0  0  0  0  0  0  0  0
   45.3310   17.1624    1.3183 C   0  0  0  0  0  0  0  0  0  0  0  0
   44.4335   17.7635    1.0502 H   0  0  0  0  0  0  0  0  0  0  0  0
   45.8476   16.8562    0.3795 H   0  0  0  0  0  0  0  0  0  0  0  0
   46.2970   18.0740    2.0983 C   0  0  0  0  0  0  0  0  0  0  0  0
   46.6356   17.7143    3.2565 O   0  0  0  0  0  0  0  0  0  0  0  0
   46.6654   19.1145    1.4877 O   0  0  0  0  0  0  0  0  0  0  0  0
   48.0410    8.8291    1.5951 N   0  0  0  0  0  0  0  0  0  0  0  0
   48.7619    9.5401    1.4849 H   0  0  0  0  0  0  0  0  0  0  0  0
   48.5475    7.4460    1.8372 C   0  0  0  0  0  0  0  0  0  0  0  0
   48.1752    6.7785    1.0287 H   0  0  0  0  0  0  0  0  0  0  0  0
   50.0957    7.4892    1.7602 C   0  0  0  0  0  0  0  0  0  0  0  0
   50.4744    8.2539    2.4765 H   0  0  0  0  0  0  0  0  0  0  0  0
   50.4078    7.8005    0.7393 H   0  0  0  0  0  0  0  0  0  0  0  0
   50.7680    6.1452    2.0925 C   0  0  0  0  0  0  0  0  0  0  0  0
   51.8720    6.2792    2.0602 H   0  0  0  0  0  0  0  0  0  0  0  0
   50.4823    5.3760    1.3436 H   0  0  0  0  0  0  0  0  0  0  0  0
   50.2987    5.7343    3.4237 N   0  0  0  0  0  0  0  0  0  0  0  0
   48.8425    5.5075    3.4922 C   0  0  0  0  0  0  0  0  0  0  0  0
   48.5199    5.1435    4.4926 H   0  0  0  0  0  0  0  0  0  0  0  0
   48.5511    4.7504    2.7329 H   0  0  0  0  0  0  0  0  0  0  0  0
   48.1357    6.8472    3.2017 C   0  0  0  0  0  0  0  0  0  0  0  0
   47.0359    6.6892    3.2210 H   0  0  0  0  0  0  0  0  0  0  0  0
   48.3887    7.5693    4.0099 H   0  0  0  0  0  0  0  0  0  0  0  0
   51.3064    4.8940    4.4345 S   0  0  0  0  0  0  0  0  0  0  0  0
   51.2367    3.2186    3.7333 C   0  0  0  0  0  0  0  0  0  0  0  0
   51.5392    3.2836    2.6656 H   0  0  0  0  0  0  0  0  0  0  0  0
   50.1866    2.8697    3.7806 H   0  0  0  0  0  0  0  0  0  0  0  0
   52.6475    5.3898    4.2562 O   0  0  0  0  0  0  0  0  0  0  0  0
   50.7106    4.8838    5.7457 O   0  0  0  0  0  0  0  0  0  0  0  0
   54.0514    0.4778    5.6059 C   0  0  0  0  0  0  0  0  0  0  0  0
   54.7677   -0.2068    6.0369 H   0  0  0  0  0  0  0  0  0  0  0  0
   54.4725    1.4477    4.6965 C   0  0  0  0  0  0  0  0  0  0  0  0
   55.5154    1.5149    4.4224 H   0  0  0  0  0  0  0  0  0  0  0  0
   53.5437    2.3262    4.1336 C   0  0  0  0  0  0  0  0  0  0  0  0
   53.8834    3.0623    3.4191 H   0  0  0  0  0  0  0  0  0  0  0  0
   52.1780    2.2582    4.4667 C   0  0  0  0  0  0  0  0  0  0  0  0
   51.7442    1.2766    5.4156 C   0  0  0  0  0  0  0  0  0  0  0  0
   50.3134    1.1241    5.8053 C   0  0  0  0  0  0  0  0  0  0  0  0
   50.0887    0.2391    6.7943 F   0  0  0  0  0  0  0  0  0  0  0  0
   49.5487    0.7092    4.7802 F   0  0  0  0  0  0  0  0  0  0  0  0
   49.7683    2.2736    6.2372 F   0  0  0  0  0  0  0  0  0  0  0  0
   52.7038    0.3925    5.9616 C   0  0  0  0  0  0  0  0  0  0  0  0
   52.4188   -0.3746    6.6690 H   0  0  0  0  0  0  0  0  0  0  0  0
  1  2  1  0
  1  5  1  0
  2  3  2  0
  2  6  1  0
  3  4  1  0
  3 20  1  0
  4  5  2  0
  4 19  1  0
  5  9  1  0
  6  7  2  0
  6  8  1  0
  9 10  2  0
  9 17  1  0
 10 11  1  0
 10 12  1  0
 12 13  2  0
 12 27  1  0
 13 14  1  0
 13 15  1  0
 15 16  1  0
 15 17  2  0
 17 18  1  0
 20 21  1  0
 21 22  1  0
 21 23  1  0
 21 24  1  0
 24 25  2  0
 24 26  1  0
 27 28  1  0
 27 29  1  0
 29 30  1  0
 29 31  1  0
 29 41  1  0
 31 32  1  0
 31 33  1  0
 31 34  1  0
 34 35  1  0
 34 36  1  0
 34 37  1  0
 37 38  1  0
 37 44  1  0
 38 39  1  0
 38 40  1  0
 38 41  1  0
 41 42  1  0
 41 43  1  0
 44 45  1  0
 44 48  2  0
 44 49  2  0
 45 46  1  0
 45 47  1  0
 45 56  1  0
 50 51  1  0
 50 52  2  0
 50 62  1  0
 52 53  1  0
 52 54  1  0
 54 55  1  0
 54 56  2  0
 56 57  1  0
 57 58  1  0
 57 62  2  0
 58 59  1  0
 58 60  1  0
 58 61  1  0
 62 63  1  0
M  CHG  2   8  -1  26  -1
M  END
> <intraLJ>
23.221    

> <intraEL>
6.007     

> <intraDihe>
47.042    

> <interLJ>
0.000     

> <interEJ>
0.000     

> <gridLJ>
-5.450    

> <gridEL>
0.000     

> <totalE>
70.819    

> <LGFE>
-5.450  

> <LE>
-0.133  

> <SMILES>
O=C([O-])COc1c(C(=O)[O-])sc(-c2cccc(NC3CCN(S(=O)(=O)Cc4ccccc4C(F)(F)F)CC3)c2)c1Br

> <atom.dprop.GFE>
-0.3953 0.1775 0.4339 0.1032 -0.0699 -0.9440 0.0000 0.0000 -0.2290 -0.1884 0.0000 -0.1558 -0.1152 0.0000 -0.0721 0.0000 -0.2609 0.0000 -0.4620 1.9690 0.8715 0.0000 0.0000 -2.6910 0.0000 0.0000 -0.2580 0.0000 -0.4782 0.0000 -0.2288 0.0000 0.0000 -0.2058 0.0000 0.0000 -0.4430 -0.5764 0.0000 0.0000 -0.6660 0.0000 0.0000 0.0000 -0.1369 0.0000 0.0000 -0.3620 0.1900 0.0636 0.0000 0.1511 0.0000 -0.0284 0.0000 -0.0576 -0.0443 -0.3250 0.0000 0.0000 0.0000 -0.0155 0.0000

> <atom.prop.CLASS>
PRPC GEHC GEHC GEHC GEHC ACEC NCLA NCLA BENC BENC NCLA BENC BENC NCLA BENC NCLA BENC NCLA BRBX DMEO PRPC NCLA NCLA ACEC NCLA NCLA FORN NCLA PRPC NCLA PRPC NCLA NCLA PRPC NCLA NCLA GENA PRPC NCLA NCLA PRPC NCLA NCLA NCLA PRPC NCLA NCLA FORO FORO BENC NCLA BENC NCLA BENC NCLA BENC BENC TFEC NCLA NCLA NCLA BENC NCLA

> <cluster_id>
1

> <rmsd_to_cluster_rep>
0.00    

> <ligRMSD>
1.76    

> <ligCOMD>
0.97    

$$$$
ptp1b_wilson_45_690
     RDKit          3D

 63 66  0  0  0  0  0  0  0  0999 V2000
   44.0331   13.2422   -0.0578 S   0  0  0  0  0  0  0  0  0  0  0  0
   44.1050   14.8182    0.6399 C   0  0  0  0  0  0  0  0  0  0  0  0
   44.9820   14.8398    1.6940 C   0  0  0  0  0  0  0  0  0  0  0  0
   45.5323   13.5842    1.9328 C   0  0  0  0  0  0  0  0  0  0  0  0
   45.1465   12.5689    1.0774 C   0  0  0  0  0  0  0  0  0  0  0  0
   43.2945   15.8849   -0.0460 C   0  0  0  0  0  0  0  0  0  0  0  0
   42.2647   16.3384    0.5276 O   0  0  0  0  0  0  0  0  0  0  0  0
   43.7243   16.2487   -1.1777 O   0  0  0  0  0  0  0  0  0  0  0  0
   45.3471   11.1001    1.0194 C   0  0  0  0  0  0  0  0  0  0  0  0
   46.6307   10.5602    1.2755 C   0  0  0  0  0  0  0  0  0  0  0  0
   47.4539   11.2288    1.4850 H   0  0  0  0  0  0  0  0  0  0  0  0
   46.8798    9.1736    1.2706 C   0  0  0  0  0  0  0  0  0  0  0  0
   45.8346    8.2934    0.9505 C   0  0  0  0  0  0  0  0  0  0  0  0
   46.0095    7.2286    0.9069 H   0  0  0  0  0  0  0  0  0  0  0  0
   44.5602    8.8000    0.6604 C   0  0  0  0  0  0  0  0  0  0  0  0
   43.7568    8.1232    0.4084 H   0  0  0  0  0  0  0  0  0  0  0  0
   44.3153   10.1786    0.7154 C   0  0  0  0  0  0  0  0  0  0  0  0
   43.3132   10.5251    0.5085 H   0  0  0  0  0  0  0  0  0  0  0  0
   46.7108   13.3311    3.4143 Br  0  0  0  0  0  0  0  0  0  0  0  0
   45.1853   15.9343    2.4480 O   0  0  0  0  0  0  0  0  0  0  0  0
   45.3948   17.1559    1.7172 C   0  0  0  0  0  0  0  0  0  0  0  0
   44.4119   17.6467    1.5390 H   0  0  0  0  0  0  0  0  0  0  0  0
   45.8808   16.9649    0.7326 H   0  0  0  0  0  0  0  0  0  0  0  0
   46.2879   18.1477    2.4860 C   0  0  0  0  0  0  0  0  0  0  0  0
   46.7408   17.7839    3.6031 O   0  0  0  0  0  0  0  0  0  0  0  0
   46.4856   19.2520    1.9091 O   0  0  0  0  0  0  0  0  0  0  0  0
   48.2238    8.7794    1.4892 N   0  0  0  0  0  0  0  0  0  0  0  0
   48.9538    9.4718    1.3301 H   0  0  0  0  0  0  0  0  0  0  0  0
   48.7131    7.3936    1.7512 C   0  0  0  0  0  0  0  0  0  0  0  0
   48.4512    6.7483    0.8835 H   0  0  0  0  0  0  0  0  0  0  0  0
   50.2579    7.4510    1.8686 C   0  0  0  0  0  0  0  0  0  0  0  0
   50.5363    8.1948    2.6499 H   0  0  0  0  0  0  0  0  0  0  0  0
   50.6907    7.7974    0.9046 H   0  0  0  0  0  0  0  0  0  0  0  0
   50.8986    6.1016    2.2395 C   0  0  0  0  0  0  0  0  0  0  0  0
   51.9965    6.2454    2.3478 H   0  0  0  0  0  0  0  0  0  0  0  0
   50.7167    5.3559    1.4363 H   0  0  0  0  0  0  0  0  0  0  0  0
   50.2738    5.6415    3.4892 N   0  0  0  0  0  0  0  0  0  0  0  0
   48.8227    5.4055    3.3707 C   0  0  0  0  0  0  0  0  0  0  0  0
   48.3842    5.0096    4.3131 H   0  0  0  0  0  0  0  0  0  0  0  0
   48.6340    4.6707    2.5588 H   0  0  0  0  0  0  0  0  0  0  0  0
   48.1438    6.7497    3.0363 C   0  0  0  0  0  0  0  0  0  0  0  0
   47.0514    6.5850    2.9164 H   0  0  0  0  0  0  0  0  0  0  0  0
   48.2895    7.4478    3.8908 H   0  0  0  0  0  0  0  0  0  0  0  0
   51.1612    4.7622    4.5778 S   0  0  0  0  0  0  0  0  0  0  0  0
   51.3567    3.1787    3.7101 C   0  0  0  0  0  0  0  0  0  0  0  0
   51.9248    3.3726    2.7743 H   0  0  0  0  0  0  0  0  0  0  0  0
   50.3495    2.7948    3.4454 H   0  0  0  0  0  0  0  0  0  0  0  0
   52.4594    5.3745    4.7030 O   0  0  0  0  0  0  0  0  0  0  0  0
   50.3477    4.5531    5.7477 O   0  0  0  0  0  0  0  0  0  0  0  0
   53.6385    0.2112    5.9159 C   0  0  0  0  0  0  0  0  0  0  0  0
   54.2188   -0.5388    6.4332 H   0  0  0  0  0  0  0  0  0  0  0  0
   54.2813    1.2026    5.1689 C   0  0  0  0  0  0  0  0  0  0  0  0
   55.3596    1.2178    5.1068 H   0  0  0  0  0  0  0  0  0  0  0  0
   53.5280    2.1701    4.4940 C   0  0  0  0  0  0  0  0  0  0  0  0
   54.0362    2.9231    3.9090 H   0  0  0  0  0  0  0  0  0  0  0  0
   52.1212    2.1698    4.5608 C   0  0  0  0  0  0  0  0  0  0  0  0
   51.4750    1.1631    5.3246 C   0  0  0  0  0  0  0  0  0  0  0  0
   49.9766    1.0853    5.4260 C   0  0  0  0  0  0  0  0  0  0  0  0
   49.6771    0.3081    6.1625 H   0  0  0  0  0  0  0  0  0  0  0  0
   49.5612    0.8257    4.4291 H   0  0  0  0  0  0  0  0  0  0  0  0
   49.5816    2.0684    5.7582 H   0  0  0  0  0  0  0  0  0  0  0  0
   52.2425    0.1932    5.9924 C   0  0  0  0  0  0  0  0  0  0  0  0
   51.7526   -0.5774    6.5695 H   0  0  0  0  0  0  0  0  0  0  0  0
  1  2  1  0
  1  5  1  0
  2  3  2  0
  2  6  1  0
  3  4  1  0
  3 20  1  0
  4  5  2  0
  4 19  1  0
  5  9  1  0
  6  7  2  0
  6  8  1  0
  9 10  2  0
  9 17  1  0
 10 11  1  0
 10 12  1  0
 12 13  2  0
 12 27  1  0
 13 14  1  0
 13 15  1  0
 15 16  1  0
 15 17  2  0
 17 18  1  0
 20 21  1  0
 21 22  1  0
 21 23  1  0
 21 24  1  0
 24 25  2  0
 24 26  1  0
 27 28  1  0
 27 29  1  0
 29 30  1  0
 29 31  1  0
 29 41  1  0
 31 32  1  0
 31 33  1  0
 31 34  1  0
 34 35  1  0
 34 36  1  0
 34 37  1  0
 37 38  1  0
 37 44  1  0
 38 39  1  0
 38 40  1  0
 38 41  1  0
 41 42  1  0
 41 43  1  0
 44 45  1  0
 44 48  2  0
 44 49  2  0
 45 46  1  0
 45 47  1  0
 45 56  1  0
 50 51  1  0
 50 52  2  0
 50 62  1  0
 52 53  1  0
 52 54  1  0
 54 55  1  0
 54 56  2  0
 56 57  1  0
 57 58  1  0
 57 62  2  0
 58 59  1  0
 58 60  1  0
 58 61  1  0
 62 63  1  0
M  CHG  2   8  -1  26  -1
M  END
> <intraLJ>
21.971    

> <intraEL>
5.387     

> <intraDihe>
44.445    

> <interLJ>
0.000     

> <interEJ>
0.000     

> <gridLJ>
-5.281    

> <gridEL>
0.000     

> <totalE>
66.522    

> <LGFE>
-5.281  

> <LE>
-0.139  

> <SMILES>
Cc1ccccc1CS(=O)(=O)N1CCC(Nc2cccc(-c3sc(C(=O)[O-])c(OCC(=O)[O-])c3Br)c2)CC1

> <atom.dprop.GFE>
-0.3696 0.1775 0.4339 0.3303 -0.0699 -0.9020 0.0000 0.0000 -0.2261 -0.1884 0.0000 -0.1558 -0.1152 0.0000 -0.1358 0.0000 -0.2627 0.0000 -0.4620 1.9690 0.8715 0.0000 0.0000 -2.6910 0.0000 0.0000 -0.2580 0.0000 -0.4782 0.0000 -0.2288 0.0000 0.0000 -0.2058 0.0000 0.0000 -0.4430 -0.5764 0.0000 0.0000 -0.6660 0.0000 0.0000 0.0000 -0.0599 0.0000 0.0000 -0.3620 0.1900 0.1062 0.0000 0.0865 0.0000 -0.0284 0.0000 -0.0576 -0.0935 -0.2844 0.0000 0.0000 0.0000 -0.1254 0.0000

> <atom.prop.CLASS>
PRPC GEHC GEHC GEHC GEHC ACEC NCLA NCLA BENC BENC NCLA BENC BENC NCLA BENC NCLA BENC NCLA BRBX DMEO PRPC NCLA NCLA ACEC NCLA NCLA FORN NCLA PRPC NCLA PRPC NCLA NCLA PRPC NCLA NCLA GENA PRPC NCLA NCLA PRPC NCLA NCLA NCLA PRPC NCLA NCLA FORO FORO BENC NCLA BENC NCLA BENC NCLA BENC BENC PRPC NCLA NCLA NCLA BENC NCLA

> <cluster_id>
1

> <rmsd_to_cluster_rep>
0.00    

> <ligRMSD>
1.52    

> <ligCOMD>
0.96    

$$$$
ptp1b_wilson_46_649
     RDKit          3D

 66 69  0  0  0  0  0  0  0  0999 V2000
   43.9381   13.2321   -0.0063 S   0  0  0  0  0  0  0  0  0  0  0  0
   43.9980   14.8269    0.6486 C   0  0  0  0  0  0  0  0  0  0  0  0
   44.8461   14.8750    1.7253 C   0  0  0  0  0  0  0  0  0  0  0  0
   45.3841   13.6245    2.0141 C   0  0  0  0  0  0  0  0  0  0  0  0
   45.0176   12.5869    1.1771 C   0  0  0  0  0  0  0  0  0  0  0  0
   43.2108   15.8767   -0.0886 C   0  0  0  0  0  0  0  0  0  0  0  0
   42.2602   16.4607    0.5034 O   0  0  0  0  0  0  0  0  0  0  0  0
   43.5765   16.0922   -1.2792 O   0  0  0  0  0  0  0  0  0  0  0  0
   45.2140   11.1162    1.1656 C   0  0  0  0  0  0  0  0  0  0  0  0
   46.5101   10.5824    1.3665 C   0  0  0  0  0  0  0  0  0  0  0  0
   47.3449   11.2560    1.5005 H   0  0  0  0  0  0  0  0  0  0  0  0
   46.7571    9.1958    1.4015 C   0  0  0  0  0  0  0  0  0  0  0  0
   45.6939    8.3072    1.1784 C   0  0  0  0  0  0  0  0  0  0  0  0
   45.8649    7.2409    1.1662 H   0  0  0  0  0  0  0  0  0  0  0  0
   44.4051    8.8064    0.9442 C   0  0  0  0  0  0  0  0  0  0  0  0
   43.5876    8.1229    0.7667 H   0  0  0  0  0  0  0  0  0  0  0  0
   44.1653   10.1868    0.9594 C   0  0  0  0  0  0  0  0  0  0  0  0
   43.1531   10.5281    0.7985 H   0  0  0  0  0  0  0  0  0  0  0  0
   46.5212   13.4088    3.5334 Br  0  0  0  0  0  0  0  0  0  0  0  0
   45.0338   15.9895    2.4536 O   0  0  0  0  0  0  0  0  0  0  0  0
   45.4016   17.1614    1.7042 C   0  0  0  0  0  0  0  0  0  0  0  0
   44.4791   17.7114    1.4122 H   0  0  0  0  0  0  0  0  0  0  0  0
   45.9649   16.8954    0.7801 H   0  0  0  0  0  0  0  0  0  0  0  0
   46.2869   18.1203    2.5224 C   0  0  0  0  0  0  0  0  0  0  0  0
   46.5857   17.7822    3.6980 O   0  0  0  0  0  0  0  0  0  0  0  0
   46.6366   19.1735    1.9228 O   0  0  0  0  0  0  0  0  0  0  0  0
   48.1114    8.8060    1.5541 N   0  0  0  0  0  0  0  0  0  0  0  0
   48.8302    9.5051    1.3753 H   0  0  0  0  0  0  0  0  0  0  0  0
   48.6195    7.4211    1.7831 C   0  0  0  0  0  0  0  0  0  0  0  0
   48.3408    6.7861    0.9131 H   0  0  0  0  0  0  0  0  0  0  0  0
   50.1664    7.4927    1.8598 C   0  0  0  0  0  0  0  0  0  0  0  0
   50.4586    8.2274    2.6448 H   0  0  0  0  0  0  0  0  0  0  0  0
   50.5697    7.8579    0.8900 H   0  0  0  0  0  0  0  0  0  0  0  0
   50.8293    6.1446    2.1925 C   0  0  0  0  0  0  0  0  0  0  0  0
   51.9287    6.2956    2.2717 H   0  0  0  0  0  0  0  0  0  0  0  0
   50.6309    5.4087    1.3840 H   0  0  0  0  0  0  0  0  0  0  0  0
   50.2426    5.6617    3.4517 N   0  0  0  0  0  0  0  0  0  0  0  0
   48.7918    5.4103    3.3691 C   0  0  0  0  0  0  0  0  0  0  0  0
   48.3830    4.9954    4.3166 H   0  0  0  0  0  0  0  0  0  0  0  0
   48.5895    4.6855    2.5515 H   0  0  0  0  0  0  0  0  0  0  0  0
   48.0909    6.7524    3.0731 C   0  0  0  0  0  0  0  0  0  0  0  0
   46.9974    6.5783    2.9795 H   0  0  0  0  0  0  0  0  0  0  0  0
   48.2523    7.4392    3.9338 H   0  0  0  0  0  0  0  0  0  0  0  0
   51.1742    4.7997    4.5161 S   0  0  0  0  0  0  0  0  0  0  0  0
   51.2943    3.1867    3.6772 C   0  0  0  0  0  0  0  0  0  0  0  0
   51.5594    3.3742    2.6160 H   0  0  0  0  0  0  0  0  0  0  0  0
   50.2869    2.7213    3.6903 H   0  0  0  0  0  0  0  0  0  0  0  0
   52.4783    5.4084    4.5585 O   0  0  0  0  0  0  0  0  0  0  0  0
   50.4206    4.6452    5.7330 O   0  0  0  0  0  0  0  0  0  0  0  0
   54.1820    0.3932    5.3823 C   0  0  0  0  0  0  0  0  0  0  0  0
   54.8901   -0.3184    5.7823 H   0  0  0  0  0  0  0  0  0  0  0  0
   54.5922    1.3346    4.4395 C   0  0  0  0  0  0  0  0  0  0  0  0
   55.6219    1.3399    4.1119 H   0  0  0  0  0  0  0  0  0  0  0  0
   53.6835    2.2617    3.9071 C   0  0  0  0  0  0  0  0  0  0  0  0
   54.2012    3.2155    2.8623 C   0  0  0  0  0  0  0  0  0  0  0  0
   53.6454    3.0558    1.9142 H   0  0  0  0  0  0  0  0  0  0  0  0
   55.2839    3.0424    2.6767 H   0  0  0  0  0  0  0  0  0  0  0  0
   54.0639    4.2573    3.2156 H   0  0  0  0  0  0  0  0  0  0  0  0
   52.3259    2.2598    4.3350 C   0  0  0  0  0  0  0  0  0  0  0  0
   51.9212    1.2853    5.2900 C   0  0  0  0  0  0  0  0  0  0  0  0
   50.4974    1.1634    5.7665 C   0  0  0  0  0  0  0  0  0  0  0  0
   50.4082    0.3622    6.5324 H   0  0  0  0  0  0  0  0  0  0  0  0
   49.8456    0.9105    4.9035 H   0  0  0  0  0  0  0  0  0  0  0  0
   50.1767    2.1239    6.2183 H   0  0  0  0  0  0  0  0  0  0  0  0
   52.8530    0.3703    5.8029 C   0  0  0  0  0  0  0  0  0  0  0  0
   52.5408   -0.3684    6.5271 H   0  0  0  0  0  0  0  0  0  0  0  0
  1  2  1  0
  1  5  1  0
  2  3  2  0
  2  6  1  0
  3  4  1  0
  3 20  1  0
  4  5  2  0
  4 19  1  0
  5  9  1  0
  6  7  2  0
  6  8  1  0
  9 10  2  0
  9 17  1  0
 10 11  1  0
 10 12  1  0
 12 13  2  0
 12 27  1  0
 13 14  1  0
 13 15  1  0
 15 16  1  0
 15 17  2  0
 17 18  1  0
 20 21  1  0
 21 22  1  0
 21 23  1  0
 21 24  1  0
 24 25  2  0
 24 26  1  0
 27 28  1  0
 27 29  1  0
 29 30  1  0
 29 31  1  0
 29 41  1  0
 31 32  1  0
 31 33  1  0
 31 34  1  0
 34 35  1  0
 34 36  1  0
 34 37  1  0
 37 38  1  0
 37 44  1  0
 38 39  1  0
 38 40  1  0
 38 41  1  0
 41 42  1  0
 41 43  1  0
 44 45  1  0
 44 48  2  0
 44 49  2  0
 45 46  1  0
 45 47  1  0
 45 59  1  0
 50 51  1  0
 50 52  2  0
 50 65  1  0
 52 53  1  0
 52 54  1  0
 54 55  1  0
 54 59  2  0
 55 56  1  0
 55 57  1  0
 55 58  1  0
 59 60  1  0
 60 61  1  0
 60 65  2  0
 61 62  1  0
 61 63  1  0
 61 64  1  0
 65 66  1  0
M  CHG  2   8  -1  26  -1
M  END
> <intraLJ>
22.188    

> <intraEL>
3.909     

> <intraDihe>
45.513    

> <interLJ>
0.000     

> <interEJ>
0.000     

> <gridLJ>
-5.059    

> <gridEL>
0.000     

> <totalE>
66.550    

> <LGFE>
-5.059  

> <LE>
-0.130  

> <SMILES>
Cc1cccc(C)c1CS(=O)(=O)N1CCC(Nc2cccc(-c3sc(C(=O)[O-])c(OCC(=O)[O-])c3Br)c2)CC1

> <atom.dprop.GFE>
-0.3696 0.1775 0.4339 0.3303 -0.0699 -0.9020 0.0000 0.0000 -0.2290 -0.1884 0.0000 -0.1558 -0.1152 0.0000 -0.0721 0.0000 -0.1555 0.0000 -0.4620 1.9690 0.8715 0.0000 0.0000 -2.6910 0.0000 0.0000 -0.2580 0.0000 -0.4782 0.0000 -0.2288 0.0000 0.0000 -0.2058 0.0000 0.0000 -0.4430 -0.5764 0.0000 0.0000 -0.6660 0.0000 0.0000 0.0000 -0.1369 0.0000 0.0000 -0.3620 0.1900 0.0636 0.0000 0.1511 0.0000 -0.0284 -0.0077 0.0000 0.0000 0.0000 -0.0337 -0.0443 -0.3510 0.0000 0.0000 0.0000 -0.0155 0.0000

> <atom.prop.CLASS>
PRPC GEHC GEHC GEHC GEHC ACEC NCLA NCLA BENC BENC NCLA BENC BENC NCLA BENC NCLA BENC NCLA BRBX DMEO PRPC NCLA NCLA ACEC NCLA NCLA FORN NCLA PRPC NCLA PRPC NCLA NCLA PRPC NCLA NCLA GENA PRPC NCLA NCLA PRPC NCLA NCLA NCLA PRPC NCLA NCLA FORO FORO BENC NCLA BENC NCLA BENC PRPC NCLA NCLA NCLA BENC BENC PRPC NCLA NCLA NCLA BENC NCLA

> <cluster_id>
1

> <rmsd_to_cluster_rep>
0.00    

> <ligRMSD>
1.63    

> <ligCOMD>
0.96    

$$$$
ptp1b_wilson_47_1050
     RDKit          3D

 62 65  0  0  0  0  0  0  0  0999 V2000
   44.6317   13.5766   -0.3486 S   0  0  0  0  0  0  0  0  0  0  0  0
   44.5380   15.0748    0.5013 C   0  0  0  0  0  0  0  0  0  0  0  0
   45.1327   14.9693    1.7325 C   0  0  0  0  0  0  0  0  0  0  0  0
   45.6038   13.6818    1.9690 C   0  0  0  0  0  0  0  0  0  0  0  0
   45.4311   12.7655    0.9484 C   0  0  0  0  0  0  0  0  0  0  0  0
   43.9257   16.2263   -0.2493 C   0  0  0  0  0  0  0  0  0  0  0  0
   44.5176   16.6794   -1.2688 O   0  0  0  0  0  0  0  0  0  0  0  0
   42.8352   16.6607    0.2197 O   0  0  0  0  0  0  0  0  0  0  0  0
   45.6289   11.3043    0.7932 C   0  0  0  0  0  0  0  0  0  0  0  0
   46.8272   10.7137    1.2608 C   0  0  0  0  0  0  0  0  0  0  0  0
   47.5906   11.3406    1.7000 H   0  0  0  0  0  0  0  0  0  0  0  0
   47.0651    9.3281    1.1792 C   0  0  0  0  0  0  0  0  0  0  0  0
   46.1076    8.5055    0.5661 C   0  0  0  0  0  0  0  0  0  0  0  0
   46.2829    7.4450    0.4618 H   0  0  0  0  0  0  0  0  0  0  0  0
   44.9247    9.0660    0.0644 C   0  0  0  0  0  0  0  0  0  0  0  0
   44.1895    8.4337   -0.4117 H   0  0  0  0  0  0  0  0  0  0  0  0
   44.6796   10.4395    0.1954 C   0  0  0  0  0  0  0  0  0  0  0  0
   43.7452   10.8279   -0.1829 H   0  0  0  0  0  0  0  0  0  0  0  0
   46.3835   13.2529    3.6589 Br  0  0  0  0  0  0  0  0  0  0  0  0
   45.1516   15.9794    2.6194 O   0  0  0  0  0  0  0  0  0  0  0  0
   45.5233   17.2609    2.0815 C   0  0  0  0  0  0  0  0  0  0  0  0
   44.6023   17.8159    1.7944 H   0  0  0  0  0  0  0  0  0  0  0  0
   46.1696   17.1541    1.1797 H   0  0  0  0  0  0  0  0  0  0  0  0
   46.2958   18.1196    3.1002 C   0  0  0  0  0  0  0  0  0  0  0  0
   46.5335   17.6180    4.2304 O   0  0  0  0  0  0  0  0  0  0  0  0
   46.6248   19.2675    2.6937 O   0  0  0  0  0  0  0  0  0  0  0  0
   48.3280    8.8833    1.6434 N   0  0  0  0  0  0  0  0  0  0  0  0
   49.0800    9.5683    1.6975 H   0  0  0  0  0  0  0  0  0  0  0  0
   48.7531    7.4648    1.8333 C   0  0  0  0  0  0  0  0  0  0  0  0
   48.4630    6.8770    0.9343 H   0  0  0  0  0  0  0  0  0  0  0  0
   50.2986    7.4470    1.9503 C   0  0  0  0  0  0  0  0  0  0  0  0
   50.6103    8.1393    2.7657 H   0  0  0  0  0  0  0  0  0  0  0  0
   50.7462    7.8195    1.0029 H   0  0  0  0  0  0  0  0  0  0  0  0
   50.8794    6.0544    2.2538 C   0  0  0  0  0  0  0  0  0  0  0  0
   51.9828    6.1449    2.3637 H   0  0  0  0  0  0  0  0  0  0  0  0
   50.6628    5.3564    1.4170 H   0  0  0  0  0  0  0  0  0  0  0  0
   50.2397    5.5634    3.4826 N   0  0  0  0  0  0  0  0  0  0  0  0
   48.7778    5.3976    3.3586 C   0  0  0  0  0  0  0  0  0  0  0  0
   48.3237    4.9799    4.2840 H   0  0  0  0  0  0  0  0  0  0  0  0
   48.5564    4.7079    2.5159 H   0  0  0  0  0  0  0  0  0  0  0  0
   48.1543    6.7827    3.0852 C   0  0  0  0  0  0  0  0  0  0  0  0
   47.0566    6.6678    2.9559 H   0  0  0  0  0  0  0  0  0  0  0  0
   48.3247    7.4330    3.9721 H   0  0  0  0  0  0  0  0  0  0  0  0
   51.0912    4.5844    4.5142 S   0  0  0  0  0  0  0  0  0  0  0  0
   51.0276    2.9831    3.6578 C   0  0  0  0  0  0  0  0  0  0  0  0
   51.3844    3.1428    2.6170 H   0  0  0  0  0  0  0  0  0  0  0  0
   49.9724    2.6357    3.6339 H   0  0  0  0  0  0  0  0  0  0  0  0
   52.4600    5.0317    4.5493 O   0  0  0  0  0  0  0  0  0  0  0  0
   50.3350    4.4866    5.7358 O   0  0  0  0  0  0  0  0  0  0  0  0
   53.4792   -0.1762    5.3528 C   0  0  0  0  0  0  0  0  0  0  0  0
   54.0830   -0.9857    5.7362 H   0  0  0  0  0  0  0  0  0  0  0  0
   54.0165    0.7200    4.4236 C   0  0  0  0  0  0  0  0  0  0  0  0
   55.0357    0.6005    4.0861 H   0  0  0  0  0  0  0  0  0  0  0  0
   53.2317    1.7679    3.9253 C   0  0  0  0  0  0  0  0  0  0  0  0
   53.6528    2.4415    3.1934 H   0  0  0  0  0  0  0  0  0  0  0  0
   51.8952    1.9312    4.3428 C   0  0  0  0  0  0  0  0  0  0  0  0
   51.3654    1.0255    5.2934 C   0  0  0  0  0  0  0  0  0  0  0  0
   50.0577    1.1464    5.7520 N   0  0  0  0  0  0  0  0  0  0  0  0
   49.9206    0.6379    6.6012 H   0  0  0  0  0  0  0  0  0  0  0  0
   49.7405    2.0945    5.6943 H   0  0  0  0  0  0  0  0  0  0  0  0
   52.1599   -0.0190    5.7901 C   0  0  0  0  0  0  0  0  0  0  0  0
   51.7597   -0.7172    6.5121 H   0  0  0  0  0  0  0  0  0  0  0  0
  1  2  1  0
  1  5  1  0
  2  3  2  0
  2  6  1  0
  3  4  1  0
  3 20  1  0
  4  5  2  0
  4 19  1  0
  5  9  1  0
  6  7  2  0
  6  8  1  0
  9 10  2  0
  9 17  1  0
 10 11  1  0
 10 12  1  0
 12 13  2  0
 12 27  1  0
 13 14  1  0
 13 15  1  0
 15 16  1  0
 15 17  2  0
 17 18  1  0
 20 21  1  0
 21 22  1  0
 21 23  1  0
 21 24  1  0
 24 25  2  0
 24 26  1  0
 27 28  1  0
 27 29  1  0
 29 30  1  0
 29 31  1  0
 29 41  1  0
 31 32  1  0
 31 33  1  0
 31 34  1  0
 34 35  1  0
 34 36  1  0
 34 37  1  0
 37 38  1  0
 37 44  1  0
 38 39  1  0
 38 40  1  0
 38 41  1  0
 41 42  1  0
 41 43  1  0
 44 45  1  0
 44 48  2  0
 44 49  2  0
 45 46  1  0
 45 47  1  0
 45 56  1  0
 50 51  1  0
 50 52  2  0
 50 61  1  0
 52 53  1  0
 52 54  1  0
 54 55  1  0
 54 56  2  0
 56 57  1  0
 57 58  1  0
 57 61  2  0
 58 59  1  0
 58 60  1  0
 61 62  1  0
M  CHG  2   8  -1  26  -1
M  END
> <intraLJ>
21.729    

> <intraEL>
3.277     

> <intraDihe>
46.842    

> <interLJ>
0.000     

> <interEJ>
0.000     

> <gridLJ>
-5.082    

> <gridEL>
0.000     

> <totalE>
66.767    

> <LGFE>
-5.082  

> <LE>
-0.134  

> <SMILES>
Nc1ccccc1CS(=O)(=O)N1CCC(Nc2cccc(-c3sc(C(=O)[O-])c(OCC(=O)[O-])c3Br)c2)CC1

> <atom.dprop.GFE>
-0.3813 0.1775 0.4339 0.3303 -0.0080 -0.9950 0.0000 0.0000 -0.2251 -0.1884 0.0000 -0.1558 -0.1695 0.0000 -0.1358 0.0000 -0.2627 0.0000 -0.4620 1.9690 1.3443 0.0000 0.0000 -2.7610 0.0000 0.0000 -0.2580 0.0000 -0.4782 0.0000 -0.2288 0.0000 0.0000 -0.2058 0.0000 0.0000 -0.4430 -0.5764 0.0000 0.0000 -0.6660 0.0000 0.0000 0.0000 0.0143 0.0000 0.0000 -0.2830 0.1900 0.0296 0.0000 0.0636 0.0000 0.0192 0.0000 -0.0456 -0.0935 -0.5580 0.0000 0.0000 -0.0728 0.0000

> <atom.prop.CLASS>
PRPC GEHC GEHC GEHC GEHC ACEC NCLA NCLA BENC BENC NCLA BENC BENC NCLA BENC NCLA BENC NCLA BRBX DMEO PRPC NCLA NCLA ACEC NCLA NCLA FORN NCLA PRPC NCLA PRPC NCLA NCLA PRPC NCLA NCLA GENA PRPC NCLA NCLA PRPC NCLA NCLA NCLA PRPC NCLA NCLA FORO FORO BENC NCLA BENC NCLA BENC NCLA BENC BENC FORN NCLA NCLA BENC NCLA

> <cluster_id>
1

> <rmsd_to_cluster_rep>
0.00    

> <ligRMSD>
1.42    

> <ligCOMD>
0.98    

$$$$
ptp1b_wilson_48_869
     RDKit          3D

 67 70  0  0  0  0  0  0  0  0999 V2000
   43.5292   12.8097   -0.2325 S   0  0  0  0  0  0  0  0  0  0  0  0
   43.5362   14.4815    0.1929 C   0  0  0  0  0  0  0  0  0  0  0  0
   44.4470   14.7222    1.1894 C   0  0  0  0  0  0  0  0  0  0  0  0
   45.0757   13.5531    1.6067 C   0  0  0  0  0  0  0  0  0  0  0  0
   44.7174   12.3916    0.9482 C   0  0  0  0  0  0  0  0  0  0  0  0
   42.6441   15.3775   -0.6233 C   0  0  0  0  0  0  0  0  0  0  0  0
   42.0705   14.9074   -1.6456 O   0  0  0  0  0  0  0  0  0  0  0  0
   42.5413   16.5662   -0.2059 O   0  0  0  0  0  0  0  0  0  0  0  0
   44.9967   10.9455    1.1245 C   0  0  0  0  0  0  0  0  0  0  0  0
   46.3294   10.5137    1.3285 C   0  0  0  0  0  0  0  0  0  0  0  0
   47.1282   11.2421    1.3269 H   0  0  0  0  0  0  0  0  0  0  0  0
   46.6588    9.1603    1.5381 C   0  0  0  0  0  0  0  0  0  0  0  0
   45.6414    8.1947    1.4925 C   0  0  0  0  0  0  0  0  0  0  0  0
   45.8744    7.1475    1.6165 H   0  0  0  0  0  0  0  0  0  0  0  0
   44.3163    8.5882    1.2601 C   0  0  0  0  0  0  0  0  0  0  0  0
   43.5336    7.8447    1.2196 H   0  0  0  0  0  0  0  0  0  0  0  0
   43.9962    9.9431    1.1006 C   0  0  0  0  0  0  0  0  0  0  0  0
   42.9596   10.2058    0.9477 H   0  0  0  0  0  0  0  0  0  0  0  0
   46.3171   13.6095    3.0570 Br  0  0  0  0  0  0  0  0  0  0  0  0
   44.6146   15.9357    1.7433 O   0  0  0  0  0  0  0  0  0  0  0  0
   45.8745   16.5712    1.4627 C   0  0  0  0  0  0  0  0  0  0  0  0
   45.7858   17.1542    0.5187 H   0  0  0  0  0  0  0  0  0  0  0  0
   46.6920   15.8232    1.3432 H   0  0  0  0  0  0  0  0  0  0  0  0
   46.2993   17.5413    2.5810 C   0  0  0  0  0  0  0  0  0  0  0  0
   45.5476   17.6430    3.5860 O   0  0  0  0  0  0  0  0  0  0  0  0
   47.3843   18.1521    2.3788 O   0  0  0  0  0  0  0  0  0  0  0  0
   48.0385    8.8665    1.6748 N   0  0  0  0  0  0  0  0  0  0  0  0
   48.7053    9.6079    1.4669 H   0  0  0  0  0  0  0  0  0  0  0  0
   48.6421    7.5236    1.9219 C   0  0  0  0  0  0  0  0  0  0  0  0
   48.2692    6.8129    1.1514 H   0  0  0  0  0  0  0  0  0  0  0  0
   50.1779    7.6609    1.7561 C   0  0  0  0  0  0  0  0  0  0  0  0
   50.5457    8.4697    2.4285 H   0  0  0  0  0  0  0  0  0  0  0  0
   50.4125    7.9596    0.7109 H   0  0  0  0  0  0  0  0  0  0  0  0
   50.9536    6.3733    2.0854 C   0  0  0  0  0  0  0  0  0  0  0  0
   52.0433    6.5741    1.9862 H   0  0  0  0  0  0  0  0  0  0  0  0
   50.6764    5.5640    1.3767 H   0  0  0  0  0  0  0  0  0  0  0  0
   50.5856    5.9776    3.4505 N   0  0  0  0  0  0  0  0  0  0  0  0
   49.1532    5.6553    3.6077 C   0  0  0  0  0  0  0  0  0  0  0  0
   48.9099    5.2983    4.6327 H   0  0  0  0  0  0  0  0  0  0  0  0
   48.8742    4.8587    2.8851 H   0  0  0  0  0  0  0  0  0  0  0  0
   48.3428    6.9366    3.3212 C   0  0  0  0  0  0  0  0  0  0  0  0
   47.2587    6.7067    3.4030 H   0  0  0  0  0  0  0  0  0  0  0  0
   48.5875    7.6964    4.0967 H   0  0  0  0  0  0  0  0  0  0  0  0
   51.7093    5.2925    4.4555 S   0  0  0  0  0  0  0  0  0  0  0  0
   51.9379    3.6523    3.6958 C   0  0  0  0  0  0  0  0  0  0  0  0
   52.2214    3.8103    2.6323 H   0  0  0  0  0  0  0  0  0  0  0  0
   50.9722    3.1038    3.7313 H   0  0  0  0  0  0  0  0  0  0  0  0
   52.9460    6.0201    4.3331 O   0  0  0  0  0  0  0  0  0  0  0  0
   51.0916    5.1521    5.7489 O   0  0  0  0  0  0  0  0  0  0  0  0
   54.9500    1.1668    5.6018 C   0  0  0  0  0  0  0  0  0  0  0  0
   55.6935    0.5333    6.0630 H   0  0  0  0  0  0  0  0  0  0  0  0
   55.2592    1.8784    4.4364 C   0  0  0  0  0  0  0  0  0  0  0  0
   56.2408    1.7881    3.9949 H   0  0  0  0  0  0  0  0  0  0  0  0
   54.2993    2.7121    3.8448 C   0  0  0  0  0  0  0  0  0  0  0  0
   54.5487    3.2534    2.9440 H   0  0  0  0  0  0  0  0  0  0  0  0
   53.0128    2.8352    4.4053 C   0  0  0  0  0  0  0  0  0  0  0  0
   52.7072    2.0909    5.5645 C   0  0  0  0  0  0  0  0  0  0  0  0
   51.4329    2.2456    6.1594 N   0  0  0  0  0  0  0  0  0  0  0  0
   51.2111    3.1908    6.3894 H   0  0  0  0  0  0  0  0  0  0  0  0
   53.6780    1.2836    6.1719 C   0  0  0  0  0  0  0  0  0  0  0  0
   53.4399    0.7420    7.0754 H   0  0  0  0  0  0  0  0  0  0  0  0
   50.4551    1.3179    6.1946 C   0  0  0  0  0  0  0  0  0  0  0  0
   50.7676   -0.0817    5.7686 C   0  0  0  0  0  0  0  0  0  0  0  0
   51.1649   -0.0951    4.7309 H   0  0  0  0  0  0  0  0  0  0  0  0
   49.8455   -0.7018    5.8005 H   0  0  0  0  0  0  0  0  0  0  0  0
   51.5190   -0.5352    6.4500 H   0  0  0  0  0  0  0  0  0  0  0  0
   49.3221    1.6189    6.5589 O   0  0  0  0  0  0  0  0  0  0  0  0
  1  2  1  0
  1  5  1  0
  2  3  2  0
  2  6  1  0
  3  4  1  0
  3 20  1  0
  4  5  2  0
  4 19  1  0
  5  9  1  0
  6  7  2  0
  6  8  1  0
  9 10  2  0
  9 17  1  0
 10 11  1  0
 10 12  1  0
 12 13  2  0
 12 27  1  0
 13 14  1  0
 13 15  1  0
 15 16  1  0
 15 17  2  0
 17 18  1  0
 20 21  1  0
 21 22  1  0
 21 23  1  0
 21 24  1  0
 24 25  2  0
 24 26  1  0
 27 28  1  0
 27 29  1  0
 29 30  1  0
 29 31  1  0
 29 41  1  0
 31 32  1  0
 31 33  1  0
 31 34  1  0
 34 35  1  0
 34 36  1  0
 34 37  1  0
 37 38  1  0
 37 44  1  0
 38 39  1  0
 38 40  1  0
 38 41  1  0
 41 42  1  0
 41 43  1  0
 44 45  1  0
 44 48  2  0
 44 49  2  0
 45 46  1  0
 45 47  1  0
 45 56  1  0
 50 51  1  0
 50 52  2  0
 50 60  1  0
 52 53  1  0
 52 54  1  0
 54 55  1  0
 54 56  2  0
 56 57  1  0
 57 58  1  0
 57 60  2  0
 58 59  1  0
 58 62  1  0
 60 61  1  0
 62 63  1  0
 62 67  2  0
 63 64  1  0
 63 65  1  0
 63 66  1  0
M  CHG  2   8  -1  26  -1
M  END
> <intraLJ>
21.556    

> <intraEL>
-0.519    

> <intraDihe>
54.290    

> <interLJ>
0.000     

> <interEJ>
0.000     

> <gridLJ>
-5.518    

> <gridEL>
0.000     

> <totalE>
69.809    

> <LGFE>
-5.518  

> <LE>
-0.135  

> <SMILES>
CC(=O)Nc1ccccc1CS(=O)(=O)N1CCC(Nc2cccc(-c3sc(C(=O)[O-])c(OCC(=O)[O-])c3Br)c2)CC1

> <atom.dprop.GFE>
-0.5471 0.1775 0.4339 0.1032 -0.0699 -0.9440 0.0000 0.0000 -0.2290 -0.1884 0.0000 -0.1353 -0.1152 0.0000 -0.0721 0.0000 -0.0959 0.0000 -0.4620 1.0610 0.8715 0.0000 0.0000 -2.6910 0.0000 0.0000 -0.2580 0.0000 -0.4782 0.0000 -0.2288 0.0000 0.0000 -0.1442 0.0000 0.0000 -0.1160 -0.5764 0.0000 0.0000 -0.5325 0.0000 0.0000 0.0000 -0.0599 0.0000 0.0000 -0.3620 0.1900 0.2978 0.0000 0.1511 0.0000 -0.0284 0.0000 -0.0337 -0.0155 0.2460 0.0000 0.1588 0.0000 0.0000 -0.3407 0.0000 0.0000 0.0000 -0.4850

> <atom.prop.CLASS>
PRPC GEHC GEHC GEHC GEHC ACEC NCLA NCLA BENC BENC NCLA BENC BENC NCLA BENC NCLA BENC NCLA BRBX DMEO PRPC NCLA NCLA ACEC NCLA NCLA FORN NCLA PRPC NCLA PRPC NCLA NCLA PRPC NCLA NCLA GENA PRPC NCLA NCLA PRPC NCLA NCLA NCLA PRPC NCLA NCLA FORO FORO BENC NCLA BENC NCLA BENC NCLA BENC BENC FORN NCLA BENC NCLA NCLA PRPC NCLA NCLA NCLA FORO

> <cluster_id>
1

> <rmsd_to_cluster_rep>
0.00    

> <ligRMSD>
2.05    

> <ligCOMD>
0.91    

$$$$
ptp1b_wilson_49_300
     RDKit          3D

 72 75  0  0  0  0  0  0  0  0999 V2000
   43.3977   13.0133   -0.1069 S   0  0  0  0  0  0  0  0  0  0  0  0
   43.4947   14.6933    0.2724 C   0  0  0  0  0  0  0  0  0  0  0  0
   44.4473   14.9173    1.2330 C   0  0  0  0  0  0  0  0  0  0  0  0
   45.0353   13.7319    1.6621 C   0  0  0  0  0  0  0  0  0  0  0  0
   44.6011   12.5719    1.0486 C   0  0  0  0  0  0  0  0  0  0  0  0
   42.6213   15.6089   -0.5418 C   0  0  0  0  0  0  0  0  0  0  0  0
   42.1359   15.1886   -1.6294 O   0  0  0  0  0  0  0  0  0  0  0  0
   42.4421   16.7617   -0.0553 O   0  0  0  0  0  0  0  0  0  0  0  0
   44.8151   11.1201    1.2579 C   0  0  0  0  0  0  0  0  0  0  0  0
   46.1357   10.6277    1.3850 C   0  0  0  0  0  0  0  0  0  0  0  0
   46.9675   11.3130    1.3010 H   0  0  0  0  0  0  0  0  0  0  0  0
   46.4115    9.2674    1.6225 C   0  0  0  0  0  0  0  0  0  0  0  0
   45.3471    8.3550    1.6844 C   0  0  0  0  0  0  0  0  0  0  0  0
   45.5365    7.3021    1.8326 H   0  0  0  0  0  0  0  0  0  0  0  0
   44.0297    8.8082    1.5303 C   0  0  0  0  0  0  0  0  0  0  0  0
   43.2106    8.1052    1.5733 H   0  0  0  0  0  0  0  0  0  0  0  0
   43.7663   10.1716    1.3417 C   0  0  0  0  0  0  0  0  0  0  0  0
   42.7360   10.4833    1.2513 H   0  0  0  0  0  0  0  0  0  0  0  0
   46.3223   13.7686    3.0728 Br  0  0  0  0  0  0  0  0  0  0  0  0
   44.6884   16.1356    1.7474 O   0  0  0  0  0  0  0  0  0  0  0  0
   45.9501   16.7180    1.3752 C   0  0  0  0  0  0  0  0  0  0  0  0
   45.9067   17.0267    0.3067 H   0  0  0  0  0  0  0  0  0  0  0  0
   46.7882   15.9943    1.5021 H   0  0  0  0  0  0  0  0  0  0  0  0
   46.2894   17.9637    2.2146 C   0  0  0  0  0  0  0  0  0  0  0  0
   45.4894   18.2913    3.1301 O   0  0  0  0  0  0  0  0  0  0  0  0
   47.3618   18.5471    1.8974 O   0  0  0  0  0  0  0  0  0  0  0  0
   47.7807    8.9073    1.6805 N   0  0  0  0  0  0  0  0  0  0  0  0
   48.4678    9.6036    1.3967 H   0  0  0  0  0  0  0  0  0  0  0  0
   48.3266    7.5379    1.9164 C   0  0  0  0  0  0  0  0  0  0  0  0
   47.8585    6.8323    1.1949 H   0  0  0  0  0  0  0  0  0  0  0  0
   49.8511    7.5817    1.6360 C   0  0  0  0  0  0  0  0  0  0  0  0
   50.3113    8.3878    2.2524 H   0  0  0  0  0  0  0  0  0  0  0  0
   50.0234    7.8359    0.5672 H   0  0  0  0  0  0  0  0  0  0  0  0
   50.5794    6.2627    1.9514 C   0  0  0  0  0  0  0  0  0  0  0  0
   51.6678    6.4002    1.7671 H   0  0  0  0  0  0  0  0  0  0  0  0
   50.2078    5.4493    1.2923 H   0  0  0  0  0  0  0  0  0  0  0  0
   50.2951    5.9287    3.3521 N   0  0  0  0  0  0  0  0  0  0  0  0
   48.8626    5.6927    3.6221 C   0  0  0  0  0  0  0  0  0  0  0  0
   48.6792    5.3910    4.6765 H   0  0  0  0  0  0  0  0  0  0  0  0
   48.4886    4.8858    2.9561 H   0  0  0  0  0  0  0  0  0  0  0  0
   48.0975    7.0040    3.3492 C   0  0  0  0  0  0  0  0  0  0  0  0
   47.0119    6.8313    3.5124 H   0  0  0  0  0  0  0  0  0  0  0  0
   48.4324    7.7713    4.0827 H   0  0  0  0  0  0  0  0  0  0  0  0
   51.4451    5.1859    4.2866 S   0  0  0  0  0  0  0  0  0  0  0  0
   51.4687    3.5051    3.5825 C   0  0  0  0  0  0  0  0  0  0  0  0
   51.5097    3.6053    2.4759 H   0  0  0  0  0  0  0  0  0  0  0  0
   50.5256    2.9874    3.8561 H   0  0  0  0  0  0  0  0  0  0  0  0
   52.7233    5.7948    4.0237 O   0  0  0  0  0  0  0  0  0  0  0  0
   50.9387    5.1577    5.6344 O   0  0  0  0  0  0  0  0  0  0  0  0
   54.7604    0.9878    4.8868 C   0  0  0  0  0  0  0  0  0  0  0  0
   55.5664    0.3390    5.1966 H   0  0  0  0  0  0  0  0  0  0  0  0
   54.8193    1.6388    3.6487 C   0  0  0  0  0  0  0  0  0  0  0  0
   55.6701    1.4879    3.0007 H   0  0  0  0  0  0  0  0  0  0  0  0
   53.7758    2.4861    3.2488 C   0  0  0  0  0  0  0  0  0  0  0  0
   53.8278    2.9744    2.2869 H   0  0  0  0  0  0  0  0  0  0  0  0
   52.6538    2.6842    4.0778 C   0  0  0  0  0  0  0  0  0  0  0  0
   52.6074    2.0179    5.3201 C   0  0  0  0  0  0  0  0  0  0  0  0
   51.5090    2.2202    6.1946 N   0  0  0  0  0  0  0  0  0  0  0  0
   51.3623    3.1807    6.4199 H   0  0  0  0  0  0  0  0  0  0  0  0
   53.6592    1.1871    5.7263 C   0  0  0  0  0  0  0  0  0  0  0  0
   53.6135    0.6918    6.6850 H   0  0  0  0  0  0  0  0  0  0  0  0
   50.4199    1.3859    6.2321 C   0  0  0  0  0  0  0  0  0  0  0  0
   50.6726    0.1270    5.7531 N   0  0  0  0  0  0  0  0  0  0  0  0
   49.7023   -0.9227    5.7318 C   0  0  0  0  0  0  0  0  0  0  0  0
   49.2647   -1.0445    6.7502 H   0  0  0  0  0  0  0  0  0  0  0  0
   50.2304   -1.8727    5.4895 H   0  0  0  0  0  0  0  0  0  0  0  0
   48.5432   -0.7524    4.7491 C   0  0  0  0  0  0  0  0  0  0  0  0
   47.9623    0.1621    4.9952 H   0  0  0  0  0  0  0  0  0  0  0  0
   47.8626   -1.6290    4.7928 H   0  0  0  0  0  0  0  0  0  0  0  0
   48.9304   -0.6549    3.7122 H   0  0  0  0  0  0  0  0  0  0  0  0
   51.5885   -0.1083    5.4399 H   0  0  0  0  0  0  0  0  0  0  0  0
   49.3353    1.7431    6.6859 O   0  0  0  0  0  0  0  0  0  0  0  0
  1  2  1  0
  1  5  1  0
  2  3  2  0
  2  6  1  0
  3  4  1  0
  3 20  1  0
  4  5  2  0
  4 19  1  0
  5  9  1  0
  6  7  2  0
  6  8  1  0
  9 10  2  0
  9 17  1  0
 10 11  1  0
 10 12  1  0
 12 13  2  0
 12 27  1  0
 13 14  1  0
 13 15  1  0
 15 16  1  0
 15 17  2  0
 17 18  1  0
 20 21  1  0
 21 22  1  0
 21 23  1  0
 21 24  1  0
 24 25  2  0
 24 26  1  0
 27 28  1  0
 27 29  1  0
 29 30  1  0
 29 31  1  0
 29 41  1  0
 31 32  1  0
 31 33  1  0
 31 34  1  0
 34 35  1  0
 34 36  1  0
 34 37  1  0
 37 38  1  0
 37 44  1  0
 38 39  1  0
 38 40  1  0
 38 41  1  0
 41 42  1  0
 41 43  1  0
 44 45  1  0
 44 48  2  0
 44 49  2  0
 45 46  1  0
 45 47  1  0
 45 56  1  0
 50 51  1  0
 50 52  2  0
 50 60  1  0
 52 53  1  0
 52 54  1  0
 54 55  1  0
 54 56  2  0
 56 57  1  0
 57 58  1  0
 57 60  2  0
 58 59  1  0
 58 62  1  0
 60 61  1  0
 62 63  1  0
 62 72  2  0
 63 64  1  0
 63 71  1  0
 64 65  1  0
 64 66  1  0
 64 67  1  0
 67 68  1  0
 67 69  1  0
 67 70  1  0
M  CHG  2   8  -1  26  -1
M  END
> <intraLJ>
20.475    

> <intraEL>
-1.214    

> <intraDihe>
56.974    

> <interLJ>
0.000     

> <interEJ>
0.000     

> <gridLJ>
-6.763    

> <gridEL>
0.000     

> <totalE>
69.473    

> <LGFE>
-6.763  

> <LE>
-0.157  

> <SMILES>
CCNC(=O)Nc1ccccc1CS(=O)(=O)N1CCC(Nc2cccc(-c3sc(C(=O)[O-])c(OCC(=O)[O-])c3Br)c2)CC1

> <atom.dprop.GFE>
-0.5471 0.1775 0.4339 0.1032 -0.0699 -0.9440 0.0000 0.0000 -0.2290 -0.2261 0.0000 -0.1558 -0.1152 0.0000 0.0434 0.0000 -0.1555 0.0000 -0.4620 1.0610 0.8715 0.0000 0.0000 -2.6910 0.0000 0.0000 -0.2580 0.0000 -0.4782 0.0000 -0.1312 0.0000 0.0000 -0.1442 0.0000 0.0000 -0.4430 -0.5764 0.0000 0.0000 -0.6660 0.0000 0.0000 0.0000 -0.0599 0.0000 0.0000 -0.3620 0.1900 0.2056 0.0000 -0.0404 0.0000 -0.0463 0.0000 -0.0337 -0.0155 0.2460 0.0000 0.0865 0.0000 0.0000 -0.5020 -0.0989 0.0000 0.0000 -0.2451 0.0000 0.0000 0.0000 0.0000 -0.4850

> <atom.prop.CLASS>
PRPC GEHC GEHC GEHC GEHC ACEC NCLA NCLA BENC BENC NCLA BENC BENC NCLA BENC NCLA BENC NCLA BRBX DMEO PRPC NCLA NCLA ACEC NCLA NCLA FORN NCLA PRPC NCLA PRPC NCLA NCLA PRPC NCLA NCLA GENA PRPC NCLA NCLA PRPC NCLA NCLA NCLA PRPC NCLA NCLA FORO FORO BENC NCLA BENC NCLA BENC NCLA BENC BENC FORN NCLA BENC NCLA NCLA FORN PRPC NCLA NCLA PRPC NCLA NCLA NCLA NCLA FORO

> <cluster_id>
1

> <rmsd_to_cluster_rep>
0.00    

> <ligRMSD>
2.25    

> <ligCOMD>
0.84    

$$$$
ptp1b_wilson_50_580
     RDKit          3D

 68 71  0  0  0  0  0  0  0  0999 V2000
   43.7373   13.1818   -0.9321 S   0  0  0  0  0  0  0  0  0  0  0  0
   43.7630   14.8271   -0.4143 C   0  0  0  0  0  0  0  0  0  0  0  0
   44.4895   14.9593    0.7411 C   0  0  0  0  0  0  0  0  0  0  0  0
   44.9634   13.7334    1.1947 C   0  0  0  0  0  0  0  0  0  0  0  0
   44.6574   12.6320    0.4185 C   0  0  0  0  0  0  0  0  0  0  0  0
   43.0977   15.8203   -1.3269 C   0  0  0  0  0  0  0  0  0  0  0  0
   42.8159   15.4759   -2.5088 O   0  0  0  0  0  0  0  0  0  0  0  0
   42.8708   16.9555   -0.8192 O   0  0  0  0  0  0  0  0  0  0  0  0
   44.8023   11.1661    0.5616 C   0  0  0  0  0  0  0  0  0  0  0  0
   46.0641   10.6383    0.9194 C   0  0  0  0  0  0  0  0  0  0  0  0
   46.9021   11.3090    1.0514 H   0  0  0  0  0  0  0  0  0  0  0  0
   46.2723    9.2615    1.1208 C   0  0  0  0  0  0  0  0  0  0  0  0
   45.2095    8.3706    0.9033 C   0  0  0  0  0  0  0  0  0  0  0  0
   45.3539    7.3068    1.0197 H   0  0  0  0  0  0  0  0  0  0  0  0
   43.9542    8.8619    0.5181 C   0  0  0  0  0  0  0  0  0  0  0  0
   43.1366    8.1762    0.3500 H   0  0  0  0  0  0  0  0  0  0  0  0
   43.7474   10.2403    0.3703 C   0  0  0  0  0  0  0  0  0  0  0  0
   42.7601   10.5825    0.0964 H   0  0  0  0  0  0  0  0  0  0  0  0
   45.9166   13.6399    2.8475 Br  0  0  0  0  0  0  0  0  0  0  0  0
   44.6272   16.1315    1.3840 O   0  0  0  0  0  0  0  0  0  0  0  0
   45.9700   16.6452    1.4248 C   0  0  0  0  0  0  0  0  0  0  0  0
   46.0943   17.3991    0.6153 H   0  0  0  0  0  0  0  0  0  0  0  0
   46.7232   15.8373    1.2750 H   0  0  0  0  0  0  0  0  0  0  0  0
   46.2979   17.3316    2.7633 C   0  0  0  0  0  0  0  0  0  0  0  0
   45.3992   17.3665    3.6444 O   0  0  0  0  0  0  0  0  0  0  0  0
   47.4654   17.8016    2.8483 O   0  0  0  0  0  0  0  0  0  0  0  0
   47.5961    8.8770    1.4494 N   0  0  0  0  0  0  0  0  0  0  0  0
   48.3342    9.5181    1.1633 H   0  0  0  0  0  0  0  0  0  0  0  0
   48.0691    7.4733    1.6415 C   0  0  0  0  0  0  0  0  0  0  0  0
   47.7664    6.8638    0.7616 H   0  0  0  0  0  0  0  0  0  0  0  0
   49.6180    7.5030    1.7029 C   0  0  0  0  0  0  0  0  0  0  0  0
   49.9376    8.2327    2.4818 H   0  0  0  0  0  0  0  0  0  0  0  0
   50.0197    7.8552    0.7275 H   0  0  0  0  0  0  0  0  0  0  0  0
   50.2546    6.1409    2.0333 C   0  0  0  0  0  0  0  0  0  0  0  0
   51.3575    6.2688    2.1048 H   0  0  0  0  0  0  0  0  0  0  0  0
   50.0355    5.4080    1.2277 H   0  0  0  0  0  0  0  0  0  0  0  0
   49.6678    5.6704    3.2956 N   0  0  0  0  0  0  0  0  0  0  0  0
   48.2131    5.4433    3.2186 C   0  0  0  0  0  0  0  0  0  0  0  0
   47.8021    5.0347    4.1678 H   0  0  0  0  0  0  0  0  0  0  0  0
   47.9977    4.7208    2.4026 H   0  0  0  0  0  0  0  0  0  0  0  0
   47.5289    6.7951    2.9231 C   0  0  0  0  0  0  0  0  0  0  0  0
   46.4340    6.6332    2.8236 H   0  0  0  0  0  0  0  0  0  0  0  0
   47.6928    7.4735    3.7902 H   0  0  0  0  0  0  0  0  0  0  0  0
   50.5929    4.8310    4.3856 S   0  0  0  0  0  0  0  0  0  0  0  0
   50.6820    3.1643    3.6495 C   0  0  0  0  0  0  0  0  0  0  0  0
   51.7105    3.0311    3.2506 H   0  0  0  0  0  0  0  0  0  0  0  0
   49.9431    3.1454    2.8192 H   0  0  0  0  0  0  0  0  0  0  0  0
   51.9233    5.3846    4.3751 O   0  0  0  0  0  0  0  0  0  0  0  0
   49.8569    4.7430    5.6209 O   0  0  0  0  0  0  0  0  0  0  0  0
   49.9622   -0.2347    6.3014 C   0  0  0  0  0  0  0  0  0  0  0  0
   49.8070   -1.0857    6.9491 H   0  0  0  0  0  0  0  0  0  0  0  0
   48.9533    0.1770    5.4330 C   0  0  0  0  0  0  0  0  0  0  0  0
   48.0146   -0.3574    5.4050 H   0  0  0  0  0  0  0  0  0  0  0  0
   49.1576    1.2723    4.5891 C   0  0  0  0  0  0  0  0  0  0  0  0
   48.3500    1.5452    3.9287 H   0  0  0  0  0  0  0  0  0  0  0  0
   50.3702    2.0014    4.6093 C   0  0  0  0  0  0  0  0  0  0  0  0
   51.3930    1.5764    5.5033 C   0  0  0  0  0  0  0  0  0  0  0  0
   52.5980    2.3282    5.5765 N   0  0  0  0  0  0  0  0  0  0  0  0
   52.6856    2.9456    4.7710 H   0  0  0  0  0  0  0  0  0  0  0  0
   51.1755    0.4513    6.3277 C   0  0  0  0  0  0  0  0  0  0  0  0
   51.9379    0.1058    7.0095 H   0  0  0  0  0  0  0  0  0  0  0  0
   53.0601    3.1162    6.9711 S   0  0  0  0  0  0  0  0  0  0  0  0
   54.2525    2.0015    7.7020 C   0  0  0  0  0  0  0  0  0  0  0  0
   54.6135    2.4333    8.6595 H   0  0  0  0  0  0  0  0  0  0  0  0
   55.1110    1.8687    7.0104 H   0  0  0  0  0  0  0  0  0  0  0  0
   53.7726    1.0194    7.8975 H   0  0  0  0  0  0  0  0  0  0  0  0
   53.7661    4.3224    6.6248 O   0  0  0  0  0  0  0  0  0  0  0  0
   51.9395    3.1800    7.8731 O   0  0  0  0  0  0  0  0  0  0  0  0
  1  2  1  0
  1  5  1  0
  2  3  2  0
  2  6  1  0
  3  4  1  0
  3 20  1  0
  4  5  2  0
  4 19  1  0
  5  9  1  0
  6  7  2  0
  6  8  1  0
  9 10  2  0
  9 17  1  0
 10 11  1  0
 10 12  1  0
 12 13  2  0
 12 27  1  0
 13 14  1  0
 13 15  1  0
 15 16  1  0
 15 17  2  0
 17 18  1  0
 20 21  1  0
 21 22  1  0
 21 23  1  0
 21 24  1  0
 24 25  2  0
 24 26  1  0
 27 28  1  0
 27 29  1  0
 29 30  1  0
 29 31  1  0
 29 41  1  0
 31 32  1  0
 31 33  1  0
 31 34  1  0
 34 35  1  0
 34 36  1  0
 34 37  1  0
 37 38  1  0
 37 44  1  0
 38 39  1  0
 38 40  1  0
 38 41  1  0
 41 42  1  0
 41 43  1  0
 44 45  1  0
 44 48  2  0
 44 49  2  0
 45 46  1  0
 45 47  1  0
 45 56  1  0
 50 51  1  0
 50 52  2  0
 50 60  1  0
 52 53  1  0
 52 54  1  0
 54 55  1  0
 54 56  2  0
 56 57  1  0
 57 58  1  0
 57 60  2  0
 58 59  1  0
 58 62  1  0
 60 61  1  0
 62 63  1  0
 62 67  2  0
 62 68  2  0
 63 64  1  0
 63 65  1  0
 63 66  1  0
M  CHG  2   8  -1  26  -1
M  END
> <intraLJ>
21.657    

> <intraEL>
1.315     

> <intraDihe>
52.522    

> <interLJ>
0.000     

> <interEJ>
0.000     

> <gridLJ>
-7.363    

> <gridEL>
0.000     

> <totalE>
68.132    

> <LGFE>
-7.363  

> <LE>
-0.175  

> <SMILES>
CS(=O)(=O)Nc1ccccc1CS(=O)(=O)N1CCC(Nc2cccc(-c3sc(C(=O)[O-])c(OCC(=O)[O-])c3Br)c2)CC1

> <atom.dprop.GFE>
-0.3953 0.0519 0.1775 0.1032 -0.2188 -1.2330 0.0000 0.0000 -0.2670 -0.2261 0.0000 -0.2019 -0.0721 0.0000 -0.0291 0.0000 -0.2609 0.0000 0.3380 1.0610 0.8715 0.0000 0.0000 -2.7610 0.0000 0.0000 -0.2580 0.0000 -0.4825 0.0000 -0.1312 0.0000 0.0000 -0.3640 0.0000 0.0000 -0.4430 -0.6520 0.0000 0.0000 -0.6660 0.0000 0.0000 0.0000 -0.1369 0.0000 0.0000 -0.0670 0.4150 -0.0753 0.0000 -0.0751 0.0000 -0.0302 0.0000 -0.0795 -0.0443 0.0270 0.0000 -0.1618 0.0000 0.0000 0.7443 0.0000 0.0000 0.0000 -0.1630 -1.6570

> <atom.prop.CLASS>
PRPC GEHC GEHC GEHC GEHC ACEC NCLA NCLA BENC BENC NCLA BENC BENC NCLA BENC NCLA BENC NCLA BRBX DMEO PRPC NCLA NCLA ACEC NCLA NCLA FORN NCLA PRPC NCLA PRPC NCLA NCLA PRPC NCLA NCLA GENA PRPC NCLA NCLA PRPC NCLA NCLA NCLA PRPC NCLA NCLA FORO FORO BENC NCLA BENC NCLA BENC NCLA BENC BENC FORN NCLA BENC NCLA NCLA PRPC NCLA NCLA NCLA FORO FORO

> <cluster_id>
1

> <rmsd_to_cluster_rep>
0.00    

> <ligRMSD>
2.75    

> <ligCOMD>
0.87    

$$$$
ptp1b_wilson_51_635
     RDKit          3D

 61 64  0  0  0  0  0  0  0  0999 V2000
   44.9805   13.3799   -2.8142 S   0  0  0  0  0  0  0  0  0  0  0  0
   44.2929   14.8643   -2.2712 C   0  0  0  0  0  0  0  0  0  0  0  0
   44.0504   14.8201   -0.9216 C   0  0  0  0  0  0  0  0  0  0  0  0
   44.3831   13.5836   -0.3772 C   0  0  0  0  0  0  0  0  0  0  0  0
   44.9231   12.6550   -1.2459 C   0  0  0  0  0  0  0  0  0  0  0  0
   44.1507   15.9438   -3.3090 C   0  0  0  0  0  0  0  0  0  0  0  0
   45.1860   16.3917   -3.8774 O   0  0  0  0  0  0  0  0  0  0  0  0
   42.9672   16.3275   -3.5313 O   0  0  0  0  0  0  0  0  0  0  0  0
   45.2985   11.2235   -1.1680 C   0  0  0  0  0  0  0  0  0  0  0  0
   46.1453   10.7538   -0.1319 C   0  0  0  0  0  0  0  0  0  0  0  0
   46.5285   11.4474    0.6024 H   0  0  0  0  0  0  0  0  0  0  0  0
   46.4972    9.3925   -0.0257 C   0  0  0  0  0  0  0  0  0  0  0  0
   46.0355    8.4835   -0.9881 C   0  0  0  0  0  0  0  0  0  0  0  0
   46.2908    7.4349   -0.9512 H   0  0  0  0  0  0  0  0  0  0  0  0
   45.2197    8.9243   -2.0283 C   0  0  0  0  0  0  0  0  0  0  0  0
   44.8630    8.2210   -2.7672 H   0  0  0  0  0  0  0  0  0  0  0  0
   44.8393   10.2657   -2.1043 C   0  0  0  0  0  0  0  0  0  0  0  0
   44.1843   10.5540   -2.9136 H   0  0  0  0  0  0  0  0  0  0  0  0
   44.0562   13.2344    1.4720 Br  0  0  0  0  0  0  0  0  0  0  0  0
   43.4680   15.8304   -0.2530 O   0  0  0  0  0  0  0  0  0  0  0  0
   44.0200   17.1376   -0.4938 C   0  0  0  0  0  0  0  0  0  0  0  0
   43.4210   17.6478   -1.2808 H   0  0  0  0  0  0  0  0  0  0  0  0
   45.0792   17.0771   -0.8345 H   0  0  0  0  0  0  0  0  0  0  0  0
   43.9906   18.0161    0.7716 C   0  0  0  0  0  0  0  0  0  0  0  0
   43.5149   17.5094    1.8216 O   0  0  0  0  0  0  0  0  0  0  0  0
   44.4563   19.1803    0.6342 O   0  0  0  0  0  0  0  0  0  0  0  0
   47.3088    8.9936    1.0552 N   0  0  0  0  0  0  0  0  0  0  0  0
   47.9174    9.7236    1.4215 H   0  0  0  0  0  0  0  0  0  0  0  0
   47.9835    7.6713    1.0365 C   0  0  0  0  0  0  0  0  0  0  0  0
   48.6753    7.6140    0.1669 H   0  0  0  0  0  0  0  0  0  0  0  0
   47.2165    6.8717    0.9270 H   0  0  0  0  0  0  0  0  0  0  0  0
   51.1768    6.7117    3.6918 N   0  0  0  0  0  0  0  0  0  0  0  0
   50.7666    8.1111    3.7401 C   0  0  0  0  0  0  0  0  0  0  0  0
   51.6251    8.8139    3.8283 H   0  0  0  0  0  0  0  0  0  0  0  0
   50.1159    8.2727    4.6273 H   0  0  0  0  0  0  0  0  0  0  0  0
   49.9732    8.3949    2.4626 C   0  0  0  0  0  0  0  0  0  0  0  0
   50.6440    8.2840    1.5827 H   0  0  0  0  0  0  0  0  0  0  0  0
   49.6041    9.4418    2.4883 H   0  0  0  0  0  0  0  0  0  0  0  0
   48.7856    7.4097    2.3211 C   0  0  0  0  0  0  0  0  0  0  0  0
   48.1022    7.5992    3.1847 H   0  0  0  0  0  0  0  0  0  0  0  0
   49.2474    5.9400    2.4610 C   0  0  0  0  0  0  0  0  0  0  0  0
   49.8730    5.6656    1.5843 H   0  0  0  0  0  0  0  0  0  0  0  0
   48.3623    5.2690    2.4836 H   0  0  0  0  0  0  0  0  0  0  0  0
   50.0628    5.7658    3.7474 C   0  0  0  0  0  0  0  0  0  0  0  0
   50.3808    4.7097    3.8803 H   0  0  0  0  0  0  0  0  0  0  0  0
   49.4215    6.0168    4.6215 H   0  0  0  0  0  0  0  0  0  0  0  0
   52.3894    6.4326    3.1090 C   0  0  0  0  0  0  0  0  0  0  0  0
   53.1706    7.3163    2.7642 O   0  0  0  0  0  0  0  0  0  0  0  0
   52.6047    5.0886    2.9079 N   0  0  0  0  0  0  0  0  0  0  0  0
   51.8758    4.4525    3.1397 H   0  0  0  0  0  0  0  0  0  0  0  0
   55.6531    3.2088    0.6488 C   0  0  0  0  0  0  0  0  0  0  0  0
   56.4218    2.7078    0.0791 H   0  0  0  0  0  0  0  0  0  0  0  0
   55.2630    4.5094    0.3091 C   0  0  0  0  0  0  0  0  0  0  0  0
   55.7326    5.0148   -0.5220 H   0  0  0  0  0  0  0  0  0  0  0  0
   54.2659    5.1581    1.0492 C   0  0  0  0  0  0  0  0  0  0  0  0
   53.9941    6.1668    0.7799 H   0  0  0  0  0  0  0  0  0  0  0  0
   53.6419    4.5078    2.1259 C   0  0  0  0  0  0  0  0  0  0  0  0
   54.0548    3.2079    2.4744 C   0  0  0  0  0  0  0  0  0  0  0  0
   53.3219    2.3738    3.8168 Cl  0  0  0  0  0  0  0  0  0  0  0  0
   55.0517    2.5608    1.7341 C   0  0  0  0  0  0  0  0  0  0  0  0
   55.3560    1.5599    2.0017 H   0  0  0  0  0  0  0  0  0  0  0  0
  1  2  1  0
  1  5  1  0
  2  3  2  0
  2  6  1  0
  3  4  1  0
  3 20  1  0
  4  5  2  0
  4 19  1  0
  5  9  1  0
  6  7  2  0
  6  8  1  0
  9 10  2  0
  9 17  1  0
 10 11  1  0
 10 12  1  0
 12 13  2  0
 12 27  1  0
 13 14  1  0
 13 15  1  0
 15 16  1  0
 15 17  2  0
 17 18  1  0
 20 21  1  0
 21 22  1  0
 21 23  1  0
 21 24  1  0
 24 25  2  0
 24 26  1  0
 27 28  1  0
 27 29  1  0
 29 30  1  0
 29 31  1  0
 29 39  1  0
 32 33  1  0
 32 44  1  0
 32 47  1  0
 33 34  1  0
 33 35  1  0
 33 36  1  0
 36 37  1  0
 36 38  1  0
 36 39  1  0
 39 40  1  0
 39 41  1  0
 41 42  1  0
 41 43  1  0
 41 44  1  0
 44 45  1  0
 44 46  1  0
 47 48  2  0
 47 49  1  0
 49 50  1  0
 49 57  1  0
 51 52  1  0
 51 53  2  0
 51 60  1  0
 53 54  1  0
 53 55  1  0
 55 56  1  0
 55 57  2  0
 57 58  1  0
 58 59  1  0
 58 60  2  0
 60 61  1  0
M  CHG  2   8  -1  26  -1
M  END
> <intraLJ>
24.384    

> <intraEL>
1.704     

> <intraDihe>
29.710    

> <interLJ>
0.000     

> <interEJ>
0.000     

> <gridLJ>
-8.496    

> <gridEL>
0.000     

> <totalE>
47.302    

> <LGFE>
-8.496  

> <LE>
-0.224  

> <SMILES>
O=C([O-])COc1c(C(=O)[O-])sc(-c2cccc(NCC3CCN(C(=O)Nc4ccccc4Cl)CC3)c2)c1Br

> <atom.dprop.GFE>
-0.1552 -0.0080 0.0519 -0.0456 -0.0926 -0.5340 0.0000 0.0000 -0.2148 -0.2320 0.0000 -0.1904 -0.1413 0.0000 -0.0818 0.0000 -0.1583 0.0000 -0.5460 -0.5310 0.2191 0.0000 0.0000 -1.7500 0.0000 0.0000 -0.2580 0.0000 -0.4825 0.0000 0.0000 0.1941 0.0143 0.0000 0.0000 -0.1209 0.0000 0.0000 -0.4782 0.0000 -0.5038 0.0000 0.0000 -0.4216 0.0000 0.0000 0.0000 -0.2190 -0.2330 0.0000 -0.1892 0.0000 -0.0404 0.0000 -0.0007 0.0000 -0.0322 -0.0807 -1.0800 -0.1548 0.0000

> <atom.prop.CLASS>
PRPC GEHC GEHC GEHC GEHC ACEC NCLA NCLA BENC BENC NCLA BENC BENC NCLA BENC NCLA BENC NCLA BRBX DMEO PRPC NCLA NCLA ACEC NCLA NCLA FORN NCLA PRPC NCLA NCLA GEHC PRPC NCLA NCLA PRPC NCLA NCLA PRPC NCLA PRPC NCLA NCLA PRPC NCLA NCLA NCLA FORO FORN NCLA BENC NCLA BENC NCLA BENC NCLA BENC BENC CLBX BENC NCLA

> <cluster_id>
1

> <rmsd_to_cluster_rep>
0.00    

> <ligRMSD>
4.07    

> <ligCOMD>
0.85    

$$$$
ptp1b_wilson_52_662
     RDKit          3D

 65 68  0  0  0  0  0  0  0  0999 V2000
   45.1899   13.2765   -2.8011 S   0  0  0  0  0  0  0  0  0  0  0  0
   44.4704   14.7511   -2.2730 C   0  0  0  0  0  0  0  0  0  0  0  0
   44.2384   14.7193   -0.9213 C   0  0  0  0  0  0  0  0  0  0  0  0
   44.6046   13.4987   -0.3629 C   0  0  0  0  0  0  0  0  0  0  0  0
   45.1605   12.5716   -1.2231 C   0  0  0  0  0  0  0  0  0  0  0  0
   44.2955   15.8130   -3.3239 C   0  0  0  0  0  0  0  0  0  0  0  0
   45.3121   16.2491   -3.9338 O   0  0  0  0  0  0  0  0  0  0  0  0
   43.1058   16.1952   -3.5136 O   0  0  0  0  0  0  0  0  0  0  0  0
   45.5699   11.1505   -1.1298 C   0  0  0  0  0  0  0  0  0  0  0  0
   46.3472   10.6937   -0.0352 C   0  0  0  0  0  0  0  0  0  0  0  0
   46.6517   11.3898    0.7328 H   0  0  0  0  0  0  0  0  0  0  0  0
   46.7297    9.3420    0.0859 C   0  0  0  0  0  0  0  0  0  0  0  0
   46.3710    8.4308   -0.9175 C   0  0  0  0  0  0  0  0  0  0  0  0
   46.6537    7.3898   -0.8698 H   0  0  0  0  0  0  0  0  0  0  0  0
   45.6254    8.8596   -2.0140 C   0  0  0  0  0  0  0  0  0  0  0  0
   45.3478    8.1547   -2.7845 H   0  0  0  0  0  0  0  0  0  0  0  0
   45.2127   10.1905   -2.1074 C   0  0  0  0  0  0  0  0  0  0  0  0
   44.6141   10.4690   -2.9625 H   0  0  0  0  0  0  0  0  0  0  0  0
   44.2982   13.1664    1.4929 Br  0  0  0  0  0  0  0  0  0  0  0  0
   43.6362   15.7242   -0.2622 O   0  0  0  0  0  0  0  0  0  0  0  0
   44.1760   17.0369   -0.5002 C   0  0  0  0  0  0  0  0  0  0  0  0
   43.5696   17.5448   -1.2829 H   0  0  0  0  0  0  0  0  0  0  0  0
   45.2344   16.9868   -0.8452 H   0  0  0  0  0  0  0  0  0  0  0  0
   44.1442   17.9107    0.7684 C   0  0  0  0  0  0  0  0  0  0  0  0
   43.6719   17.3982    1.8172 O   0  0  0  0  0  0  0  0  0  0  0  0
   44.6046   19.0774    0.6344 O   0  0  0  0  0  0  0  0  0  0  0  0
   47.4646    8.9551    1.2244 N   0  0  0  0  0  0  0  0  0  0  0  0
   48.1252    9.6535    1.5609 H   0  0  0  0  0  0  0  0  0  0  0  0
   48.0148    7.5802    1.3294 C   0  0  0  0  0  0  0  0  0  0  0  0
   48.6178    7.3463    0.4241 H   0  0  0  0  0  0  0  0  0  0  0  0
   47.1732    6.8535    1.3870 H   0  0  0  0  0  0  0  0  0  0  0  0
   51.2594    6.4894    3.8699 N   0  0  0  0  0  0  0  0  0  0  0  0
   51.1348    7.9264    3.6520 C   0  0  0  0  0  0  0  0  0  0  0  0
   52.1155    8.4360    3.5203 H   0  0  0  0  0  0  0  0  0  0  0  0
   50.6369    8.3898    4.5318 H   0  0  0  0  0  0  0  0  0  0  0  0
   50.2656    8.1191    2.4077 C   0  0  0  0  0  0  0  0  0  0  0  0
   50.7936    7.6979    1.5243 H   0  0  0  0  0  0  0  0  0  0  0  0
   50.1121    9.2054    2.2363 H   0  0  0  0  0  0  0  0  0  0  0  0
   48.9019    7.4020    2.5719 C   0  0  0  0  0  0  0  0  0  0  0  0
   48.3779    7.8941    3.4275 H   0  0  0  0  0  0  0  0  0  0  0  0
   49.0860    5.9217    2.9810 C   0  0  0  0  0  0  0  0  0  0  0  0
   49.5390    5.3597    2.1360 H   0  0  0  0  0  0  0  0  0  0  0  0
   48.0976    5.4705    3.2129 H   0  0  0  0  0  0  0  0  0  0  0  0
   50.0002    5.8260    4.2075 C   0  0  0  0  0  0  0  0  0  0  0  0
   50.1238    4.7709    4.5331 H   0  0  0  0  0  0  0  0  0  0  0  0
   49.5265    6.3666    5.0570 H   0  0  0  0  0  0  0  0  0  0  0  0
   52.3480    5.8544    3.3219 C   0  0  0  0  0  0  0  0  0  0  0  0
   53.1995    6.4558    2.6719 O   0  0  0  0  0  0  0  0  0  0  0  0
   52.3425    4.4944    3.5290 N   0  0  0  0  0  0  0  0  0  0  0  0
   51.5014    4.0726    3.8535 H   0  0  0  0  0  0  0  0  0  0  0  0
   55.1623    1.5329    2.4533 C   0  0  0  0  0  0  0  0  0  0  0  0
   55.8705    0.7607    2.1902 H   0  0  0  0  0  0  0  0  0  0  0  0
   55.2106    2.7713    1.8066 C   0  0  0  0  0  0  0  0  0  0  0  0
   55.9565    2.9564    1.0473 H   0  0  0  0  0  0  0  0  0  0  0  0
   54.2956    3.7736    2.1459 C   0  0  0  0  0  0  0  0  0  0  0  0
   54.3671    4.7259    1.6448 H   0  0  0  0  0  0  0  0  0  0  0  0
   53.3210    3.5399    3.1257 C   0  0  0  0  0  0  0  0  0  0  0  0
   53.2746    2.3005    3.7947 C   0  0  0  0  0  0  0  0  0  0  0  0
   52.2804    2.1270    4.7903 O   0  0  0  0  0  0  0  0  0  0  0  0
   52.2356    0.8806    5.4759 C   0  0  0  0  0  0  0  0  0  0  0  0
   53.1853    0.6977    6.0243 H   0  0  0  0  0  0  0  0  0  0  0  0
   52.0404    0.0477    4.7656 H   0  0  0  0  0  0  0  0  0  0  0  0
   51.4063    0.9103    6.2150 H   0  0  0  0  0  0  0  0  0  0  0  0
   54.2029    1.2930    3.4470 C   0  0  0  0  0  0  0  0  0  0  0  0
   54.2070    0.3256    3.9236 H   0  0  0  0  0  0  0  0  0  0  0  0
  1  2  1  0
  1  5  1  0
  2  3  2  0
  2  6  1  0
  3  4  1  0
  3 20  1  0
  4  5  2  0
  4 19  1  0
  5  9  1  0
  6  7  2  0
  6  8  1  0
  9 10  2  0
  9 17  1  0
 10 11  1  0
 10 12  1  0
 12 13  2  0
 12 27  1  0
 13 14  1  0
 13 15  1  0
 15 16  1  0
 15 17  2  0
 17 18  1  0
 20 21  1  0
 21 22  1  0
 21 23  1  0
 21 24  1  0
 24 25  2  0
 24 26  1  0
 27 28  1  0
 27 29  1  0
 29 30  1  0
 29 31  1  0
 29 39  1  0
 32 33  1  0
 32 44  1  0
 32 47  1  0
 33 34  1  0
 33 35  1  0
 33 36  1  0
 36 37  1  0
 36 38  1  0
 36 39  1  0
 39 40  1  0
 39 41  1  0
 41 42  1  0
 41 43  1  0
 41 44  1  0
 44 45  1  0
 44 46  1  0
 47 48  2  0
 47 49  1  0
 49 50  1  0
 49 57  1  0
 51 52  1  0
 51 53  2  0
 51 64  1  0
 53 54  1  0
 53 55  1  0
 55 56  1  0
 55 57  2  0
 57 58  1  0
 58 59  1  0
 58 64  2  0
 59 60  1  0
 60 61  1  0
 60 62  1  0
 60 63  1  0
 64 65  1  0
M  CHG  2   8  -1  26  -1
M  END
> <intraLJ>
26.997    

> <intraEL>
3.663     

> <intraDihe>
28.803    

> <interLJ>
0.000     

> <interEJ>
0.000     

> <gridLJ>
-7.347    

> <gridEL>
0.000     

> <totalE>
52.115    

> <LGFE>
-7.347  

> <LE>
-0.188  

> <SMILES>
COc1ccccc1NC(=O)N1CCC(CNc2cccc(-c3sc(C(=O)[O-])c(OCC(=O)[O-])c3Br)c2)CC1

> <atom.dprop.GFE>
-0.1552 0.0666 0.0519 -0.0456 -0.0926 -0.5340 0.0000 0.0000 -0.1997 -0.2149 0.0000 -0.1904 -0.0798 0.0000 -0.0469 0.0000 -0.1583 0.0000 -0.5460 -0.5310 0.2191 0.0000 0.0000 -1.7500 0.0000 0.0000 -0.2580 0.0000 -0.4825 0.0000 0.0000 0.5335 0.0143 0.0000 0.0000 -0.2288 0.0000 0.0000 -0.4782 0.0000 -0.5764 0.0000 0.0000 -0.1835 0.0000 0.0000 0.0000 -0.0490 -0.2330 0.0000 -0.1298 0.0000 -0.1386 0.0000 -0.0807 0.0000 -0.0690 -0.0337 -0.5390 -0.2211 0.0000 0.0000 0.0000 0.0135 0.0000

> <atom.prop.CLASS>
PRPC GEHC GEHC GEHC GEHC ACEC NCLA NCLA BENC BENC NCLA BENC BENC NCLA BENC NCLA BENC NCLA BRBX DMEO PRPC NCLA NCLA ACEC NCLA NCLA FORN NCLA PRPC NCLA NCLA GEHC PRPC NCLA NCLA PRPC NCLA NCLA PRPC NCLA PRPC NCLA NCLA PRPC NCLA NCLA NCLA FORO FORN NCLA BENC NCLA BENC NCLA BENC NCLA BENC BENC DMEO PRPC NCLA NCLA NCLA BENC NCLA

> <cluster_id>
1

> <rmsd_to_cluster_rep>
0.00    

> <ligRMSD>
4.41    

> <ligCOMD>
1.27    

$$$$
ptp1b_wilson_53_997
     RDKit          3D

 64 67  0  0  0  0  0  0  0  0999 V2000
   45.2700   13.2803   -2.8364 S   0  0  0  0  0  0  0  0  0  0  0  0
   44.7335   14.8248   -2.2907 C   0  0  0  0  0  0  0  0  0  0  0  0
   44.5739   14.8280   -0.9282 C   0  0  0  0  0  0  0  0  0  0  0  0
   44.8446   13.5810   -0.3735 C   0  0  0  0  0  0  0  0  0  0  0  0
   45.2562   12.5951   -1.2494 C   0  0  0  0  0  0  0  0  0  0  0  0
   44.6093   15.8902   -3.3454 C   0  0  0  0  0  0  0  0  0  0  0  0
   45.0364   15.6559   -4.5107 O   0  0  0  0  0  0  0  0  0  0  0  0
   44.0717   16.9686   -2.9637 O   0  0  0  0  0  0  0  0  0  0  0  0
   45.5251   11.1405   -1.1581 C   0  0  0  0  0  0  0  0  0  0  0  0
   46.3761   10.6255   -0.1473 C   0  0  0  0  0  0  0  0  0  0  0  0
   46.8405   11.3004    0.5569 H   0  0  0  0  0  0  0  0  0  0  0  0
   46.6279    9.2434   -0.0275 C   0  0  0  0  0  0  0  0  0  0  0  0
   46.0603    8.3554   -0.9520 C   0  0  0  0  0  0  0  0  0  0  0  0
   46.2378    7.2914   -0.9032 H   0  0  0  0  0  0  0  0  0  0  0  0
   45.2377    8.8392   -1.9675 C   0  0  0  0  0  0  0  0  0  0  0  0
   44.7988    8.1527   -2.6772 H   0  0  0  0  0  0  0  0  0  0  0  0
   44.9566   10.2044   -2.0556 C   0  0  0  0  0  0  0  0  0  0  0  0
   44.2924   10.5278   -2.8437 H   0  0  0  0  0  0  0  0  0  0  0  0
   44.6090   13.2972    1.5007 Br  0  0  0  0  0  0  0  0  0  0  0  0
   44.1137   15.8944   -0.2515 O   0  0  0  0  0  0  0  0  0  0  0  0
   45.0099   16.4433    0.7318 C   0  0  0  0  0  0  0  0  0  0  0  0
   45.4123   17.4116    0.3593 H   0  0  0  0  0  0  0  0  0  0  0  0
   45.8635   15.7563    0.9348 H   0  0  0  0  0  0  0  0  0  0  0  0
   44.2997   16.7073    2.0734 C   0  0  0  0  0  0  0  0  0  0  0  0
   43.0683   16.4524    2.1406 O   0  0  0  0  0  0  0  0  0  0  0  0
   45.0324   17.1601    2.9949 O   0  0  0  0  0  0  0  0  0  0  0  0
   47.4501    8.8043    1.0290 N   0  0  0  0  0  0  0  0  0  0  0  0
   48.1737    9.4652    1.3063 H   0  0  0  0  0  0  0  0  0  0  0  0
   47.9384    7.4031    1.0696 C   0  0  0  0  0  0  0  0  0  0  0  0
   48.5372    7.1864    0.1573 H   0  0  0  0  0  0  0  0  0  0  0  0
   47.0658    6.7120    1.0886 H   0  0  0  0  0  0  0  0  0  0  0  0
   51.2772    6.4309    3.5304 N   0  0  0  0  0  0  0  0  0  0  0  0
   50.8658    7.8275    3.6164 C   0  0  0  0  0  0  0  0  0  0  0  0
   51.7266    8.5316    3.6632 H   0  0  0  0  0  0  0  0  0  0  0  0
   50.2671    7.9775    4.5416 H   0  0  0  0  0  0  0  0  0  0  0  0
   49.9991    8.1208    2.3905 C   0  0  0  0  0  0  0  0  0  0  0  0
   50.6179    8.0235    1.4718 H   0  0  0  0  0  0  0  0  0  0  0  0
   49.6285    9.1658    2.4504 H   0  0  0  0  0  0  0  0  0  0  0  0
   48.8094    7.1314    2.3065 C   0  0  0  0  0  0  0  0  0  0  0  0
   48.1737    7.3117    3.2077 H   0  0  0  0  0  0  0  0  0  0  0  0
   49.2830    5.6621    2.4085 C   0  0  0  0  0  0  0  0  0  0  0  0
   49.8586    5.3969    1.4955 H   0  0  0  0  0  0  0  0  0  0  0  0
   48.4024    4.9882    2.4765 H   0  0  0  0  0  0  0  0  0  0  0  0
   50.1718    5.4803    3.6444 C   0  0  0  0  0  0  0  0  0  0  0  0
   50.4981    4.4236    3.7480 H   0  0  0  0  0  0  0  0  0  0  0  0
   49.5820    5.7219    4.5565 H   0  0  0  0  0  0  0  0  0  0  0  0
   52.4465    6.1629    2.8612 C   0  0  0  0  0  0  0  0  0  0  0  0
   53.1465    7.0519    2.3809 O   0  0  0  0  0  0  0  0  0  0  0  0
   52.7260    4.8189    2.7639 N   0  0  0  0  0  0  0  0  0  0  0  0
   52.0544    4.1683    3.1016 H   0  0  0  0  0  0  0  0  0  0  0  0
   55.8682    2.9746    0.6080 C   0  0  0  0  0  0  0  0  0  0  0  0
   56.6685    2.4909    0.0673 H   0  0  0  0  0  0  0  0  0  0  0  0
   55.3120    4.1616    0.1203 C   0  0  0  0  0  0  0  0  0  0  0  0
   55.6846    4.5974   -0.7951 H   0  0  0  0  0  0  0  0  0  0  0  0
   54.2775    4.7896    0.8229 C   0  0  0  0  0  0  0  0  0  0  0  0
   53.8797    5.7165    0.4398 H   0  0  0  0  0  0  0  0  0  0  0  0
   53.7785    4.2290    2.0094 C   0  0  0  0  0  0  0  0  0  0  0  0
   54.3506    3.0401    2.5088 C   0  0  0  0  0  0  0  0  0  0  0  0
   53.8449    2.4224    3.7851 C   0  0  0  0  0  0  0  0  0  0  0  0
   54.3612    1.4560    3.9741 H   0  0  0  0  0  0  0  0  0  0  0  0
   52.7525    2.2376    3.6957 H   0  0  0  0  0  0  0  0  0  0  0  0
   54.0474    3.1164    4.6289 H   0  0  0  0  0  0  0  0  0  0  0  0
   55.3919    2.4182    1.8005 C   0  0  0  0  0  0  0  0  0  0  0  0
   55.8290    1.5043    2.1748 H   0  0  0  0  0  0  0  0  0  0  0  0
  1  2  1  0
  1  5  1  0
  2  3  2  0
  2  6  1  0
  3  4  1  0
  3 20  1  0
  4  5  2  0
  4 19  1  0
  5  9  1  0
  6  7  2  0
  6  8  1  0
  9 10  2  0
  9 17  1  0
 10 11  1  0
 10 12  1  0
 12 13  2  0
 12 27  1  0
 13 14  1  0
 13 15  1  0
 15 16  1  0
 15 17  2  0
 17 18  1  0
 20 21  1  0
 21 22  1  0
 21 23  1  0
 21 24  1  0
 24 25  2  0
 24 26  1  0
 27 28  1  0
 27 29  1  0
 29 30  1  0
 29 31  1  0
 29 39  1  0
 32 33  1  0
 32 44  1  0
 32 47  1  0
 33 34  1  0
 33 35  1  0
 33 36  1  0
 36 37  1  0
 36 38  1  0
 36 39  1  0
 39 40  1  0
 39 41  1  0
 41 42  1  0
 41 43  1  0
 41 44  1  0
 44 45  1  0
 44 46  1  0
 47 48  2  0
 47 49  1  0
 49 50  1  0
 49 57  1  0
 51 52  1  0
 51 53  2  0
 51 63  1  0
 53 54  1  0
 53 55  1  0
 55 56  1  0
 55 57  2  0
 57 58  1  0
 58 59  1  0
 58 63  2  0
 59 60  1  0
 59 61  1  0
 59 62  1  0
 63 64  1  0
M  CHG  2   8  -1  26  -1
M  END
> <intraLJ>
27.172    

> <intraEL>
3.608     

> <intraDihe>
28.832    

> <interLJ>
0.000     

> <interEJ>
0.000     

> <gridLJ>
-7.151    

> <gridEL>
0.000     

> <totalE>
52.462    

> <LGFE>
-7.151  

> <LE>
-0.188  

> <SMILES>
Cc1ccccc1NC(=O)N1CCC(CNc2cccc(-c3sc(C(=O)[O-])c(OCC(=O)[O-])c3Br)c2)CC1

> <atom.dprop.GFE>
-0.1552 0.0666 0.0793 -0.0456 -0.0926 -0.4380 0.0000 0.0000 -0.1997 -0.2149 0.0000 -0.1904 -0.1413 0.0000 -0.0818 0.0000 -0.1583 0.0000 -0.4160 -0.5310 0.6673 0.0000 0.0000 -2.0930 0.0000 0.0000 -0.2580 0.0000 -0.4825 0.0000 0.0000 0.1941 0.0143 0.0000 0.0000 -0.2288 0.0000 0.0000 -0.5318 0.0000 -0.5038 0.0000 0.0000 -0.4216 0.0000 0.0000 0.0000 -0.0490 -0.2330 0.0000 -0.1966 0.0000 -0.1892 0.0000 -0.0007 0.0000 -0.0322 -0.1386 0.0190 0.0000 0.0000 0.0000 -0.1680 0.0000

> <atom.prop.CLASS>
PRPC GEHC GEHC GEHC GEHC ACEC NCLA NCLA BENC BENC NCLA BENC BENC NCLA BENC NCLA BENC NCLA BRBX DMEO PRPC NCLA NCLA ACEC NCLA NCLA FORN NCLA PRPC NCLA NCLA GEHC PRPC NCLA NCLA PRPC NCLA NCLA PRPC NCLA PRPC NCLA NCLA PRPC NCLA NCLA NCLA FORO FORN NCLA BENC NCLA BENC NCLA BENC NCLA BENC BENC PRPC NCLA NCLA NCLA BENC NCLA

> <cluster_id>
1

> <rmsd_to_cluster_rep>
0.00    

> <ligRMSD>
3.81    

> <ligCOMD>
0.80    

$$$$
ptp1b_wilson_54_1200
     RDKit          3D

 67 70  0  0  0  0  0  0  0  0999 V2000
   43.7387   12.6965   -0.8268 S   0  0  0  0  0  0  0  0  0  0  0  0
   43.6131   14.3732   -0.4473 C   0  0  0  0  0  0  0  0  0  0  0  0
   44.5016   14.7136    0.5411 C   0  0  0  0  0  0  0  0  0  0  0  0
   45.2213   13.6110    0.9907 C   0  0  0  0  0  0  0  0  0  0  0  0
   44.9625   12.4094    0.3600 C   0  0  0  0  0  0  0  0  0  0  0  0
   42.6454   15.1674   -1.2813 C   0  0  0  0  0  0  0  0  0  0  0  0
   41.8084   14.5559   -2.0031 O   0  0  0  0  0  0  0  0  0  0  0  0
   42.7559   16.4231   -1.1889 O   0  0  0  0  0  0  0  0  0  0  0  0
   45.3652   10.9976    0.5629 C   0  0  0  0  0  0  0  0  0  0  0  0
   46.7251   10.6574    0.7789 C   0  0  0  0  0  0  0  0  0  0  0  0
   47.4766   11.4335    0.7866 H   0  0  0  0  0  0  0  0  0  0  0  0
   47.1274    9.3234    0.9957 C   0  0  0  0  0  0  0  0  0  0  0  0
   46.1704    8.2994    0.9572 C   0  0  0  0  0  0  0  0  0  0  0  0
   46.4371    7.2636    1.1053 H   0  0  0  0  0  0  0  0  0  0  0  0
   44.8309    8.6057    0.7258 C   0  0  0  0  0  0  0  0  0  0  0  0
   44.0950    7.8149    0.6996 H   0  0  0  0  0  0  0  0  0  0  0  0
   44.4319    9.9329    0.5542 C   0  0  0  0  0  0  0  0  0  0  0  0
   43.3790   10.1223    0.4040 H   0  0  0  0  0  0  0  0  0  0  0  0
   46.4634   13.8023    2.4292 Br  0  0  0  0  0  0  0  0  0  0  0  0
   44.5737   15.9512    1.0608 O   0  0  0  0  0  0  0  0  0  0  0  0
   45.8144   16.6477    0.8438 C   0  0  0  0  0  0  0  0  0  0  0  0
   45.6727   17.4049    0.0407 H   0  0  0  0  0  0  0  0  0  0  0  0
   46.6264   15.9491    0.5367 H   0  0  0  0  0  0  0  0  0  0  0  0
   46.2908   17.3819    2.1119 C   0  0  0  0  0  0  0  0  0  0  0  0
   45.5668   17.3000    3.1389 O   0  0  0  0  0  0  0  0  0  0  0  0
   47.3818   18.0050    2.0002 O   0  0  0  0  0  0  0  0  0  0  0  0
   48.4906    9.0677    1.2462 N   0  0  0  0  0  0  0  0  0  0  0  0
   49.1027    9.8732    1.1287 H   0  0  0  0  0  0  0  0  0  0  0  0
   49.1216    7.8177    0.7528 C   0  0  0  0  0  0  0  0  0  0  0  0
   50.1402    8.0392    0.3639 H   0  0  0  0  0  0  0  0  0  0  0  0
   48.5105    7.4042   -0.0810 H   0  0  0  0  0  0  0  0  0  0  0  0
   50.7086    4.9064    3.4312 N   0  0  0  0  0  0  0  0  0  0  0  0
   50.2654    6.1332    4.0832 C   0  0  0  0  0  0  0  0  0  0  0  0
   50.9470    6.4649    4.8982 H   0  0  0  0  0  0  0  0  0  0  0  0
   49.2637    5.9667    4.5366 H   0  0  0  0  0  0  0  0  0  0  0  0
   50.1683    7.2092    3.0006 C   0  0  0  0  0  0  0  0  0  0  0  0
   51.1823    7.4057    2.5886 H   0  0  0  0  0  0  0  0  0  0  0  0
   49.7886    8.1488    3.4545 H   0  0  0  0  0  0  0  0  0  0  0  0
   49.2350    6.7502    1.8526 C   0  0  0  0  0  0  0  0  0  0  0  0
   48.2169    6.6195    2.2945 H   0  0  0  0  0  0  0  0  0  0  0  0
   49.6450    5.3604    1.3119 C   0  0  0  0  0  0  0  0  0  0  0  0
   50.6266    5.4412    0.7974 H   0  0  0  0  0  0  0  0  0  0  0  0
   48.8909    5.0060    0.5771 H   0  0  0  0  0  0  0  0  0  0  0  0
   49.7542    4.3593    2.4672 C   0  0  0  0  0  0  0  0  0  0  0  0
   50.0232    3.3486    2.0928 H   0  0  0  0  0  0  0  0  0  0  0  0
   48.7615    4.2623    2.9605 H   0  0  0  0  0  0  0  0  0  0  0  0
   52.0557    4.6402    3.4234 C   0  0  0  0  0  0  0  0  0  0  0  0
   52.8508    5.1832    4.1880 O   0  0  0  0  0  0  0  0  0  0  0  0
   52.4364    3.7380    2.4603 N   0  0  0  0  0  0  0  0  0  0  0  0
   51.8068    3.5307    1.7191 H   0  0  0  0  0  0  0  0  0  0  0  0
   56.4590    2.8295    1.5496 C   0  0  0  0  0  0  0  0  0  0  0  0
   57.4849    2.5972    1.3037 H   0  0  0  0  0  0  0  0  0  0  0  0
   55.8929    2.3338    2.7284 C   0  0  0  0  0  0  0  0  0  0  0  0
   56.4870    1.7166    3.3864 H   0  0  0  0  0  0  0  0  0  0  0  0
   54.5599    2.6263    3.0582 C   0  0  0  0  0  0  0  0  0  0  0  0
   53.9849    2.0571    4.3288 C   0  0  0  0  0  0  0  0  0  0  0  0
   54.6156    1.2170    4.6923 H   0  0  0  0  0  0  0  0  0  0  0  0
   52.9572    1.6805    4.1377 H   0  0  0  0  0  0  0  0  0  0  0  0
   53.9573    2.8576    5.0985 H   0  0  0  0  0  0  0  0  0  0  0  0
   53.7973    3.4395    2.1938 C   0  0  0  0  0  0  0  0  0  0  0  0
   54.3641    3.9339    1.0026 C   0  0  0  0  0  0  0  0  0  0  0  0
   53.5629    4.8130    0.0803 C   0  0  0  0  0  0  0  0  0  0  0  0
   54.1901    5.1447   -0.7756 H   0  0  0  0  0  0  0  0  0  0  0  0
   53.2131    5.7058    0.6425 H   0  0  0  0  0  0  0  0  0  0  0  0
   52.6920    4.2400   -0.3038 H   0  0  0  0  0  0  0  0  0  0  0  0
   55.6971    3.6273    0.6901 C   0  0  0  0  0  0  0  0  0  0  0  0
   56.1406    4.0088   -0.2179 H   0  0  0  0  0  0  0  0  0  0  0  0
  1  2  1  0
  1  5  1  0
  2  3  2  0
  2  6  1  0
  3  4  1  0
  3 20  1  0
  4  5  2  0
  4 19  1  0
  5  9  1  0
  6  7  2  0
  6  8  1  0
  9 10  2  0
  9 17  1  0
 10 11  1  0
 10 12  1  0
 12 13  2  0
 12 27  1  0
 13 14  1  0
 13 15  1  0
 15 16  1  0
 15 17  2  0
 17 18  1  0
 20 21  1  0
 21 22  1  0
 21 23  1  0
 21 24  1  0
 24 25  2  0
 24 26  1  0
 27 28  1  0
 27 29  1  0
 29 30  1  0
 29 31  1  0
 29 39  1  0
 32 33  1  0
 32 44  1  0
 32 47  1  0
 33 34  1  0
 33 35  1  0
 33 36  1  0
 36 37  1  0
 36 38  1  0
 36 39  1  0
 39 40  1  0
 39 41  1  0
 41 42  1  0
 41 43  1  0
 41 44  1  0
 44 45  1  0
 44 46  1  0
 47 48  2  0
 47 49  1  0
 49 50  1  0
 49 60  1  0
 51 52  1  0
 51 53  2  0
 51 66  1  0
 53 54  1  0
 53 55  1  0
 55 56  1  0
 55 60  2  0
 56 57  1  0
 56 58  1  0
 56 59  1  0
 60 61  1  0
 61 62  1  0
 61 66  2  0
 62 63  1  0
 62 64  1  0
 62 65  1  0
 66 67  1  0
M  CHG  2   8  -1  26  -1
M  END
> <intraLJ>
24.561    

> <intraEL>
3.919     

> <intraDihe>
34.234    

> <interLJ>
0.000     

> <interEJ>
0.000     

> <gridLJ>
-6.481    

> <gridEL>
0.000     

> <totalE>
56.233    

> <LGFE>
-6.481  

> <LE>
-0.166  

> <SMILES>
Cc1cccc(C)c1NC(=O)N1CCC(CNc2cccc(-c3sc(C(=O)[O-])c(OCC(=O)[O-])c3Br)c2)CC1

> <atom.dprop.GFE>
-0.5278 0.0519 0.1775 0.1032 -0.2188 -1.2330 0.0000 0.0000 -0.2320 -0.1884 0.0000 -0.1558 -0.1152 0.0000 -0.1358 0.0000 -0.2513 0.0000 -0.2620 1.0610 0.8715 0.0000 0.0000 -2.6910 0.0000 0.0000 -0.2580 0.0000 -0.3387 0.0000 0.0000 0.1069 -0.1835 0.0000 0.0000 -0.1562 0.0000 0.0000 -0.5318 0.0000 -0.1369 0.0000 0.0000 -0.2934 0.0000 0.0000 0.0000 -0.3620 0.1380 0.0000 -0.2652 0.0000 -0.1680 0.0000 -0.0342 0.0966 0.0000 0.0000 0.0000 -0.0807 -0.1286 0.0496 0.0000 0.0000 0.0000 -0.1892 0.0000

> <atom.prop.CLASS>
PRPC GEHC GEHC GEHC GEHC ACEC NCLA NCLA BENC BENC NCLA BENC BENC NCLA BENC NCLA BENC NCLA BRBX DMEO PRPC NCLA NCLA ACEC NCLA NCLA FORN NCLA PRPC NCLA NCLA GEHC PRPC NCLA NCLA PRPC NCLA NCLA PRPC NCLA PRPC NCLA NCLA PRPC NCLA NCLA NCLA FORO FORN NCLA BENC NCLA BENC NCLA BENC PRPC NCLA NCLA NCLA BENC BENC PRPC NCLA NCLA NCLA BENC NCLA

> <cluster_id>
1

> <rmsd_to_cluster_rep>
0.00    

> <ligRMSD>
3.48    

> <ligCOMD>
1.44    

$$$$
