jnk1_abbott_01Z1.X
  MOE2024           3D
jnk1_abbott_01Z1
 47 50  0  0  1  0  0  0  0  0999 V2000
   19.9600   65.4860   10.1870 C   0  0  0  0  0  0  0  0  0  0  0  0
   19.4460   64.2430    9.8430 C   0  0  0  0  0  0  0  0  0  0  0  0
   19.7310   63.7780    8.9370 H   0  0  0  0  0  0  0  0  0  0  0  0
   18.5760   63.5880   10.7120 C   0  0  0  0  0  0  0  0  0  0  0  0
   18.0310   62.3460   10.4580 N   0  0  0  0  0  0  0  0  0  0  0  0
   17.6180   61.8930   11.2820 H   0  0  0  0  0  0  0  0  0  0  0  0
   18.2130   64.1180   11.8800 N   0  0  0  0  0  0  0  0  0  0  0  0
   18.6890   65.3090   12.2390 C   0  0  0  0  0  0  0  0  0  0  0  0
   18.3840   65.7100   13.1730 H   0  0  0  0  0  0  0  0  0  0  0  0
   19.5790   66.0320   11.4030 C   0  0  0  0  0  0  0  0  0  0  0  0
   19.9400   66.9800   11.7050 H   0  0  0  0  0  0  0  0  0  0  0  0
   18.0550   60.3030    6.8130 C   0  0  0  0  0  0  0  0  0  0  0  0
   18.0650   59.7800    5.8910 H   0  0  0  0  0  0  0  0  0  0  0  0
   17.6620   61.6400    6.8500 C   0  0  0  0  0  0  0  0  0  0  0  0
   17.3690   62.1290    5.9570 H   0  0  0  0  0  0  0  0  0  0  0  0
   17.6470   62.3290    8.0580 C   0  0  0  0  0  0  0  0  0  0  0  0
   17.3330   63.3400    8.0980 H   0  0  0  0  0  0  0  0  0  0  0  0
   18.0370   61.6720    9.2270 C   0  0  0  0  0  0  0  0  0  0  0  0
   18.4190   60.3320    9.1990 C   0  0  0  0  0  0  0  0  0  0  0  0
   18.7050   59.8430   10.0940 H   0  0  0  0  0  0  0  0  0  0  0  0
   18.4300   59.6500    7.9870 C   0  0  0  0  0  0  0  0  0  0  0  0
   18.7240   58.6320    7.9550 H   0  0  0  0  0  0  0  0  0  0  0  0
   22.6310   67.5430    7.5920 N   0  0  0  0  0  0  0  0  0  0  0  0
   22.9070   67.4300    8.8910 C   0  0  0  0  0  0  0  0  0  0  0  0
   23.8070   67.8650    9.2470 H   0  0  0  0  0  0  0  0  0  0  0  0
   22.0590   66.7660    9.7690 C   0  0  0  0  0  0  0  0  0  0  0  0
   22.3160   66.6880   10.7930 H   0  0  0  0  0  0  0  0  0  0  0  0
   20.8760   66.1920    9.2970 C   0  0  0  0  0  0  0  0  0  0  0  0
   20.6120   66.3210    7.9380 C   0  0  0  0  0  0  0  0  0  0  0  0
   19.7290   65.9090    7.5250 H   0  0  0  0  0  0  0  0  0  0  0  0
   21.5150   67.0000    7.1220 C   0  0  0  0  0  0  0  0  0  0  0  0
   21.2090   67.0880    5.7640 N   0  0  0  0  0  0  0  0  0  0  0  0
   20.3360   66.6290    5.4870 H   0  0  0  0  0  0  0  0  0  0  0  0
   21.8580   67.6660    4.7160 C   0  0  0  0  0  0  0  0  0  0  0  0
   21.2280   67.6000    3.6820 O   0  0  0  0  0  0  0  0  0  0  0  0
   23.4300   70.6570    4.3310 O   0  0  0  0  0  0  0  0  0  0  0  0
   22.9550   69.7930    5.3540 C   0  0  0  0  0  0  0  0  0  0  0  0
   21.8900   69.9650    5.5190 H   0  0  0  0  0  0  0  0  0  0  0  0
   23.5030   69.9630    6.2820 H   0  0  0  0  0  0  0  0  0  0  0  0
   23.2130   68.3710    4.8160 C   0  0  3  0  0  0  0  0  0  0  0  0
   23.8960   67.8160    5.4400 H   0  0  0  0  0  0  0  0  0  0  0  0
   23.8320   68.6070    3.4230 C   0  0  0  0  0  0  0  0  0  0  0  0
   23.5380   67.8670    2.6780 H   0  0  0  0  0  0  0  0  0  0  0  0
   24.9190   68.6540    3.5030 H   0  0  0  0  0  0  0  0  0  0  0  0
   23.3010   69.9920    3.0940 C   0  0  0  0  0  0  0  0  0  0  0  0
   23.8960   70.4750    2.3170 H   0  0  0  0  0  0  0  0  0  0  0  0
   22.2520   69.9400    2.7940 H   0  0  0  0  0  0  0  0  0  0  0  0
  1  2  1  0  0  0  0
  1 10  2  0  0  0  0
  1 28  1  0  0  0  0
  2  3  1  0  0  0  0
  2  4  2  0  0  0  0
  4  5  1  0  0  0  0
  4  7  1  0  0  0  0
  5  6  1  0  0  0  0
  5 18  1  0  0  0  0
  7  8  2  0  0  0  0
  8  9  1  0  0  0  0
  8 10  1  0  0  0  0
 10 11  1  0  0  0  0
 12 13  1  0  0  0  0
 12 14  1  0  0  0  0
 12 21  2  0  0  0  0
 14 15  1  0  0  0  0
 14 16  2  0  0  0  0
 16 17  1  0  0  0  0
 16 18  1  0  0  0  0
 18 19  2  0  0  0  0
 19 20  1  0  0  0  0
 19 21  1  0  0  0  0
 21 22  1  0  0  0  0
 23 24  1  0  0  0  0
 23 31  2  0  0  0  0
 24 25  1  0  0  0  0
 24 26  2  0  0  0  0
 26 27  1  0  0  0  0
 26 28  1  0  0  0  0
 28 29  2  0  0  0  0
 29 30  1  0  0  0  0
 29 31  1  0  0  0  0
 31 32  1  0  0  0  0
 32 33  1  0  0  0  0
 32 34  1  0  0  0  0
 34 35  2  0  0  0  0
 34 40  1  0  0  0  0
 36 37  1  0  0  0  0
 36 45  1  0  0  0  0
 37 38  1  0  0  0  0
 37 39  1  0  0  0  0
 37 40  1  0  0  0  0
 40 41  1  0  0  0  0
 40 42  1  0  0  0  0
 42 43  1  0  0  0  0
 42 44  1  0  0  0  0
 42 45  1  0  0  0  0
 45 46  1  0  0  0  0
 45 47  1  0  0  0  0
M  END
$$$$
jnk1_abbott_02Z2.X
  MOE2024           3D
jnk1_abbott_02Z2
 48 51  0  0  0  0  0  0  0  0999 V2000
   18.3241   64.7234   12.2510 C   0  0  0  0  0  0  0  0  0  0  0  0
   18.9804   65.0815   11.1048 C   0  0  0  0  0  0  0  0  0  0  0  0
   19.9653   66.0024   11.4965 C   0  0  0  0  0  0  0  0  0  0  0  0
   20.8928   66.5800   10.6326 N   0  0  0  0  0  0  0  0  0  0  0  0
   20.6053   66.4156    9.6572 H   0  0  0  0  0  0  0  0  0  0  0  0
   21.1374   68.0066   10.8060 C   0  0  0  0  0  0  0  0  0  0  0  0
   20.5627   68.4205   11.6244 H   0  0  0  0  0  0  0  0  0  0  0  0
   22.1993   68.1789   10.9204 H   0  0  0  0  0  0  0  0  0  0  0  0
   19.9426   66.2537   12.7660 N   0  0  0  0  0  0  0  0  0  0  0  0
   18.9236   65.4466   13.2459 N   0  0  0  0  0  0  0  0  0  0  0  0
   18.6572   65.4017   14.2458 H   0  0  0  0  0  0  0  0  0  0  0  0
   18.5544   64.5261    9.8835 C   0  0  0  0  0  0  0  0  0  0  0  0
   19.1802   64.9595    8.7381 O   0  0  0  0  0  0  0  0  0  0  0  0
   17.5586   63.6487    9.8210 N   0  0  0  0  0  0  0  0  0  0  0  0
   16.9235   63.2766   10.9786 C   0  0  0  0  0  0  0  0  0  0  0  0
   16.1363   62.5698   10.8968 H   0  0  0  0  0  0  0  0  0  0  0  0
   17.2732   63.7934   12.2144 C   0  0  0  0  0  0  0  0  0  0  0  0
   16.7668   63.4974   13.0964 H   0  0  0  0  0  0  0  0  0  0  0  0
   19.0852   63.5688    4.8266 C   0  0  0  0  0  0  0  0  0  0  0  0
   19.0686   63.2268    3.8232 H   0  0  0  0  0  0  0  0  0  0  0  0
   18.9867   62.6535    5.8742 C   0  0  0  0  0  0  0  0  0  0  0  0
   18.8959   61.6179    5.6662 H   0  0  0  0  0  0  0  0  0  0  0  0
   19.0071   63.0972    7.1933 C   0  0  0  0  0  0  0  0  0  0  0  0
   18.9387   62.4049    7.9917 H   0  0  0  0  0  0  0  0  0  0  0  0
   19.1220   64.4632    7.4510 C   0  0  0  0  0  0  0  0  0  0  0  0
   19.2219   65.3834    6.4108 C   0  0  0  0  0  0  0  0  0  0  0  0
   19.3081   66.4180    6.6230 H   0  0  0  0  0  0  0  0  0  0  0  0
   19.2032   64.9320    5.0949 C   0  0  0  0  0  0  0  0  0  0  0  0
   19.2765   65.6263    4.2970 H   0  0  0  0  0  0  0  0  0  0  0  0
   19.8074   69.5988    7.0059 C   0  0  0  0  0  0  0  0  0  0  0  0
   19.4915   69.9759    6.0680 H   0  0  0  0  0  0  0  0  0  0  0  0
   19.1622   69.9770    8.1778 C   0  0  0  0  0  0  0  0  0  0  0  0
   18.3464   70.6517    8.1514 H   0  0  0  0  0  0  0  0  0  0  0  0
   19.5953   69.4598    9.3974 C   0  0  0  0  0  0  0  0  0  0  0  0
   18.9240   69.8359   10.5319 O   0  0  0  0  0  0  0  0  0  0  0  0
   17.7571   69.0678   10.9006 C   0  0  0  0  0  0  0  0  0  0  0  0
   17.3552   69.4902   11.8213 H   0  0  0  0  0  0  0  0  0  0  0  0
   18.0608   68.0323   11.0559 H   0  0  0  0  0  0  0  0  0  0  0  0
   17.0276   69.1393   10.0932 H   0  0  0  0  0  0  0  0  0  0  0  0
   20.6791   68.5780    9.4763 C   0  0  0  0  0  0  0  0  0  0  0  0
   21.3266   68.2103    8.2944 C   0  0  0  0  0  0  0  0  0  0  0  0
   22.1515   67.5480    8.3318 H   0  0  0  0  0  0  0  0  0  0  0  0
   20.8784   68.7113    7.0688 C   0  0  0  0  0  0  0  0  0  0  0  0
   21.4599   68.3411    5.8741 O   0  0  0  0  0  0  0  0  0  0  0  0
   22.4473   67.2927    5.7317 C   0  0  0  0  0  0  0  0  0  0  0  0
   22.6669   67.1837    4.6696 H   0  0  0  0  0  0  0  0  0  0  0  0
   22.0282   66.3674    6.1299 H   0  0  0  0  0  0  0  0  0  0  0  0
   23.3442   67.5873    6.2772 H   0  0  0  0  0  0  0  0  0  0  0  0
  1  2  1  0  0  0  0
  1 10  1  0  0  0  0
  1 17  2  0  0  0  0
  2  3  1  0  0  0  0
  2 12  2  0  0  0  0
  3  4  1  0  0  0  0
  3  9  2  0  0  0  0
  4  5  1  0  0  0  0
  4  6  1  0  0  0  0
  6  7  1  0  0  0  0
  6  8  1  0  0  0  0
  6 40  1  0  0  0  0
  9 10  1  0  0  0  0
 10 11  1  0  0  0  0
 12 13  1  0  0  0  0
 12 14  1  0  0  0  0
 13 25  1  0  0  0  0
 14 15  2  0  0  0  0
 15 16  1  0  0  0  0
 15 17  1  0  0  0  0
 17 18  1  0  0  0  0
 19 20  1  0  0  0  0
 19 21  1  0  0  0  0
 19 28  2  0  0  0  0
 21 22  1  0  0  0  0
 21 23  2  0  0  0  0
 23 24  1  0  0  0  0
 23 25  1  0  0  0  0
 25 26  2  0  0  0  0
 26 27  1  0  0  0  0
 26 28  1  0  0  0  0
 28 29  1  0  0  0  0
 30 31  1  0  0  0  0
 30 32  1  0  0  0  0
 30 43  2  0  0  0  0
 32 33  1  0  0  0  0
 32 34  2  0  0  0  0
 34 35  1  0  0  0  0
 34 40  1  0  0  0  0
 35 36  1  0  0  0  0
 36 37  1  0  0  0  0
 36 38  1  0  0  0  0
 36 39  1  0  0  0  0
 40 41  2  0  0  0  0
 41 42  1  0  0  0  0
 41 43  1  0  0  0  0
 43 44  1  0  0  0  0
 44 45  1  0  0  0  0
 45 46  1  0  0  0  0
 45 47  1  0  0  0  0
 45 48  1  0  0  0  0
M  END
$$$$
jnk1_abbott_03Z3.X
  MOE2024           3D
jnk1_abbott_03Z3
 57 61  0  0  0  0  0  0  0  0999 V2000
   22.1220   68.3540    8.2320 C   0  0  0  0  0  0  0  0  0  0  0  0
   22.7950   68.8790    7.6050 H   0  0  0  0  0  0  0  0  0  0  0  0
   22.3940   68.2630    9.5920 C   0  0  0  0  0  0  0  0  0  0  0  0
   23.2740   68.7030    9.9870 H   0  0  0  0  0  0  0  0  0  0  0  0
   21.5150   67.5950   10.4360 C   0  0  0  0  0  0  0  0  0  0  0  0
   21.7370   67.5190   11.4700 H   0  0  0  0  0  0  0  0  0  0  0  0
   20.3440   67.0160    9.9340 C   0  0  0  0  0  0  0  0  0  0  0  0
   20.0800   67.1140    8.5640 C   0  0  0  0  0  0  0  0  0  0  0  0
   19.1930   66.6860    8.1710 H   0  0  0  0  0  0  0  0  0  0  0  0
   20.9630   67.7690    7.6950 C   0  0  0  0  0  0  0  0  0  0  0  0
   20.6620   67.8300    6.2580 C   0  0  0  0  0  0  0  0  0  0  0  0
   19.5430   67.6320    5.8000 O   0  0  0  0  0  0  0  0  0  0  0  0
   21.6700   68.0970    5.3700 N   0  0  0  0  0  0  0  0  0  0  0  0
   22.6320   68.1200    5.7240 H   0  0  0  0  0  0  0  0  0  0  0  0
   22.7670   67.6850    1.3590 N   0  3  0  0  0  0  0  0  0  0  0  0
   23.7150   67.4690    1.6410 H   0  0  0  0  0  0  0  0  0  0  0  0
   22.6915   67.6677    0.3520 H   0  0  0  0  0  0  0  0  0  0  0  0
   21.8430   66.6610    1.8970 C   0  0  0  0  0  0  0  0  0  0  0  0
   22.1440   65.6720    1.5450 H   0  0  0  0  0  0  0  0  0  0  0  0
   20.8290   66.8570    1.5390 H   0  0  0  0  0  0  0  0  0  0  0  0
   21.8510   66.6820    3.4270 C   0  0  0  0  0  0  0  0  0  0  0  0
   22.8430   66.4050    3.7840 H   0  0  0  0  0  0  0  0  0  0  0  0
   21.1220   65.9640    3.8030 H   0  0  0  0  0  0  0  0  0  0  0  0
   21.4840   68.0830    3.9260 C   0  0  0  0  0  0  0  0  0  0  0  0
   20.4600   68.3200    3.6250 H   0  0  0  0  0  0  0  0  0  0  0  0
   22.4340   69.1310    3.3370 C   0  0  0  0  0  0  0  0  0  0  0  0
   23.4510   68.9530    3.6860 H   0  0  0  0  0  0  0  0  0  0  0  0
   22.1160   70.1260    3.6510 H   0  0  0  0  0  0  0  0  0  0  0  0
   22.4100   69.0480    1.8100 C   0  0  0  0  0  0  0  0  0  0  0  0
   23.1180   69.7700    1.3950 H   0  0  0  0  0  0  0  0  0  0  0  0
   21.4110   69.3040    1.4490 H   0  0  0  0  0  0  0  0  0  0  0  0
   17.8710   64.9560   11.6810 C   0  0  0  0  0  0  0  0  0  0  0  0
   18.6100   65.2070   10.5460 C   0  0  0  0  0  0  0  0  0  0  0  0
   19.4190   66.3360   10.8370 C   0  0  0  0  0  0  0  0  0  0  0  0
   19.2240   66.7310   12.0750 N   0  0  0  0  0  0  0  0  0  0  0  0
   18.2790   65.8950   12.5870 N   0  0  0  0  0  0  0  0  0  0  0  0
   17.9210   65.9750   13.5550 H   0  0  0  0  0  0  0  0  0  0  0  0
   18.4380   64.3550    9.4310 C   0  0  0  0  0  0  0  0  0  0  0  0
   19.0100   64.5000    8.5520 H   0  0  0  0  0  0  0  0  0  0  0  0
   17.5150   63.3250    9.4950 C   0  0  0  0  0  0  0  0  0  0  0  0
   17.3620   62.6960    8.6570 H   0  0  0  0  0  0  0  0  0  0  0  0
   16.7580   63.1130   10.6780 C   0  0  0  0  0  0  0  0  0  0  0  0
   15.7980   62.0870   10.7450 N   0  0  0  0  0  0  0  0  0  0  0  0
   14.8790   62.3460   11.1390 H   0  0  0  0  0  0  0  0  0  0  0  0
   16.9260   63.9270   11.7860 C   0  0  0  0  0  0  0  0  0  0  0  0
   16.3700   63.7700   12.6730 H   0  0  0  0  0  0  0  0  0  0  0  0
   15.8910   58.5100    8.5400 C   0  0  0  0  0  0  0  0  0  0  0  0
   15.9170   57.6080    7.9830 H   0  0  0  0  0  0  0  0  0  0  0  0
   14.6750   59.1510    8.7730 C   0  0  0  0  0  0  0  0  0  0  0  0
   13.7740   58.7410    8.3970 H   0  0  0  0  0  0  0  0  0  0  0  0
   14.6380   60.3360    9.5060 C   0  0  0  0  0  0  0  0  0  0  0  0
   13.1133   61.1132    9.8011 Cl  0  0  0  0  0  0  0  0  0  0  0  0
   15.8360   60.8850    9.9970 C   0  0  0  0  0  0  0  0  0  0  0  0
   17.0500   60.2340    9.7740 C   0  0  0  0  0  0  0  0  0  0  0  0
   17.9470   60.6380   10.1670 H   0  0  0  0  0  0  0  0  0  0  0  0
   17.0750   59.0490    9.0420 C   0  0  0  0  0  0  0  0  0  0  0  0
   17.9960   58.5530    8.8690 H   0  0  0  0  0  0  0  0  0  0  0  0
  1  2  1  0  0  0  0
  1  3  1  0  0  0  0
  1 10  2  0  0  0  0
  3  4  1  0  0  0  0
  3  5  2  0  0  0  0
  5  6  1  0  0  0  0
  5  7  1  0  0  0  0
  7  8  2  0  0  0  0
  7 34  1  0  0  0  0
  8  9  1  0  0  0  0
  8 10  1  0  0  0  0
 10 11  1  0  0  0  0
 11 12  2  0  0  0  0
 11 13  1  0  0  0  0
 13 14  1  0  0  0  0
 13 24  1  0  0  0  0
 15 16  1  0  0  0  0
 15 17  1  0  0  0  0
 15 18  1  0  0  0  0
 15 29  1  0  0  0  0
 18 19  1  0  0  0  0
 18 20  1  0  0  0  0
 18 21  1  0  0  0  0
 21 22  1  0  0  0  0
 21 23  1  0  0  0  0
 21 24  1  0  0  0  0
 24 25  1  0  0  0  0
 24 26  1  0  0  0  0
 26 27  1  0  0  0  0
 26 28  1  0  0  0  0
 26 29  1  0  0  0  0
 29 30  1  0  0  0  0
 29 31  1  0  0  0  0
 32 33  1  0  0  0  0
 32 36  1  0  0  0  0
 32 45  2  0  0  0  0
 33 34  1  0  0  0  0
 33 38  2  0  0  0  0
 34 35  2  0  0  0  0
 35 36  1  0  0  0  0
 36 37  1  0  0  0  0
 38 39  1  0  0  0  0
 38 40  1  0  0  0  0
 40 41  1  0  0  0  0
 40 42  2  0  0  0  0
 42 43  1  0  0  0  0
 42 45  1  0  0  0  0
 43 44  1  0  0  0  0
 43 53  1  0  0  0  0
 45 46  1  0  0  0  0
 47 48  1  0  0  0  0
 47 49  1  0  0  0  0
 47 56  2  0  0  0  0
 49 50  1  0  0  0  0
 49 51  2  0  0  0  0
 51 52  1  0  0  0  0
 51 53  1  0  0  0  0
 53 54  2  0  0  0  0
 54 55  1  0  0  0  0
 54 56  1  0  0  0  0
 56 57  1  0  0  0  0
M  CHG  1  15   1
M  END
$$$$
jnk1_abbott_04_6a
  MOE2024           3D
jnk1_abbott_04_6a
 28 28  0  0  0  0  0  0  0  0999 V2000
   20.0420   61.4350    9.4090 C   0  0  0  0  0  0  0  0  0  0  0  0
   20.5120   62.8900    9.4650 C   0  0  0  0  0  0  0  0  0  0  0  0
   19.9140   63.4980   10.6070 O   0  0  0  0  0  0  0  0  0  0  0  0
   20.1130   64.8460   10.8500 C   0  0  0  0  0  0  0  0  0  0  0  0
   20.9000   65.5290    9.9740 N   0  0  0  0  0  0  0  0  0  0  0  0
   21.1290   66.8310   10.2050 C   0  0  0  0  0  0  0  0  0  0  0  0
   20.5660   67.5220   11.2690 C   0  0  0  0  0  0  0  0  0  0  0  0
   19.7690   66.8250   12.1590 C   0  0  0  0  0  0  0  0  0  0  0  0
   19.2620   67.5660   13.2200 N   0  0  0  0  0  0  0  0  0  0  0  0
   19.5310   65.4550   11.9670 C   0  0  0  0  0  0  0  0  0  0  0  0
   18.7260   64.6520   12.8810 C   0  0  0  0  0  0  0  0  0  0  0  0
   18.0890   64.0080   13.6010 N   0  0  0  0  0  0  0  0  0  0  0  0
   21.9640   67.3700    9.2350 N   0  0  0  0  0  0  0  0  0  0  0  0
   22.6070   68.5730    9.2110 C   0  0  0  0  0  0  0  0  0  0  0  0
   22.5080   69.3630   10.1190 O   0  0  0  0  0  0  0  0  0  0  0  0
   23.4520   68.8460    7.9970 C   0  0  0  0  0  0  0  0  0  0  0  0
   20.4850   60.9430    8.5430 H   0  0  0  0  0  0  0  0  0  0  0  0
   18.9550   61.4070    9.3260 H   0  0  0  0  0  0  0  0  0  0  0  0
   20.3500   60.9180   10.3180 H   0  0  0  0  0  0  0  0  0  0  0  0
   20.2030   63.4150    8.5620 H   0  0  0  0  0  0  0  0  0  0  0  0
   21.5980   62.9260    9.5530 H   0  0  0  0  0  0  0  0  0  0  0  0
   20.7470   68.5790   11.3990 H   0  0  0  0  0  0  0  0  0  0  0  0
   18.6820   67.1200   13.9160 H   0  0  0  0  0  0  0  0  0  0  0  0
   19.4740   68.5510   13.2950 H   0  0  0  0  0  0  0  0  0  0  0  0
   22.1180   66.7840    8.4270 H   0  0  0  0  0  0  0  0  0  0  0  0
   23.3910   67.9990    7.3140 H   0  0  0  0  0  0  0  0  0  0  0  0
   24.4880   68.9930    8.3020 H   0  0  0  0  0  0  0  0  0  0  0  0
   23.0890   69.7440    7.4970 H   0  0  0  0  0  0  0  0  0  0  0  0
  1  2  1  0  0  0  0
  1 17  1  0  0  0  0
  1 18  1  0  0  0  0
  1 19  1  0  0  0  0
  2  3  1  0  0  0  0
  2 20  1  0  0  0  0
  2 21  1  0  0  0  0
  3  4  1  0  0  0  0
  4  5  1  0  0  0  0
  4 10  2  0  0  0  0
  5  6  2  0  0  0  0
  6  7  1  0  0  0  0
  6 13  1  0  0  0  0
  7  8  2  0  0  0  0
  7 22  1  0  0  0  0
  8  9  1  0  0  0  0
  8 10  1  0  0  0  0
  9 23  1  0  0  0  0
  9 24  1  0  0  0  0
 10 11  1  0  0  0  0
 11 12  3  0  0  0  0
 13 14  1  0  0  0  0
 13 25  1  0  0  0  0
 14 15  2  0  0  0  0
 14 16  1  0  0  0  0
 16 26  1  0  0  0  0
 16 27  1  0  0  0  0
 16 28  1  0  0  0  0
M  END
$$$$
jnk1_abbott_05_6b
  MOE2024           3D
jnk1_abbott_05_6b
 37 37  0  0  0  0  0  0  0  0999 V2000
   20.0750   61.4340    9.4220 C   0  0  0  0  0  0  0  0  0  0  0  0
   20.5270   62.8950    9.4690 C   0  0  0  0  0  0  0  0  0  0  0  0
   19.9270   63.5010   10.6100 O   0  0  0  0  0  0  0  0  0  0  0  0
   20.1100   64.8520   10.8460 C   0  0  0  0  0  0  0  0  0  0  0  0
   20.8850   65.5400    9.9630 N   0  0  0  0  0  0  0  0  0  0  0  0
   21.0980   66.8470   10.1870 C   0  0  0  0  0  0  0  0  0  0  0  0
   20.5320   67.5360   11.2500 C   0  0  0  0  0  0  0  0  0  0  0  0
   19.7470   66.8340   12.1470 C   0  0  0  0  0  0  0  0  0  0  0  0
   19.2360   67.5740   13.2060 N   0  0  0  0  0  0  0  0  0  0  0  0
   19.5260   65.4600   11.9630 C   0  0  0  0  0  0  0  0  0  0  0  0
   18.7350   64.6520   12.8830 C   0  0  0  0  0  0  0  0  0  0  0  0
   18.1090   64.0040   13.6100 N   0  0  0  0  0  0  0  0  0  0  0  0
   21.9363   67.3778    9.2150 N   0  0  0  0  0  0  0  0  0  0  0  0
   22.4846   68.6246    9.1055 C   0  0  0  0  0  0  0  0  0  0  0  0
   22.2379   69.4956    9.9071 O   0  0  0  0  0  0  0  0  0  0  0  0
   23.4010   68.8536    7.9236 C   0  0  0  0  0  0  0  0  0  0  0  0
   22.5025   69.1358    6.6985 C   0  0  0  0  0  0  0  0  0  0  0  0
   23.4394   69.3661    5.5031 C   0  0  0  0  0  0  0  0  0  0  0  0
   22.6246   69.6564    4.2392 C   0  0  0  0  0  0  0  0  0  0  0  0
   20.5200   60.9430    8.5570 H   0  0  0  0  0  0  0  0  0  0  0  0
   18.9880   61.3920    9.3440 H   0  0  0  0  0  0  0  0  0  0  0  0
   20.3930   60.9250   10.3320 H   0  0  0  0  0  0  0  0  0  0  0  0
   20.2080   63.4110    8.5640 H   0  0  0  0  0  0  0  0  0  0  0  0
   21.6130   62.9440    9.5520 H   0  0  0  0  0  0  0  0  0  0  0  0
   20.7010   68.5960   11.3740 H   0  0  0  0  0  0  0  0  0  0  0  0
   18.6640   67.1240   13.9070 H   0  0  0  0  0  0  0  0  0  0  0  0
   19.4360   68.5620   13.2750 H   0  0  0  0  0  0  0  0  0  0  0  0
   22.1929   66.7031    8.4887 H   0  0  0  0  0  0  0  0  0  0  0  0
   23.9881   67.9625    7.7514 H   0  0  0  0  0  0  0  0  0  0  0  0
   24.0060   69.7255    8.1332 H   0  0  0  0  0  0  0  0  0  0  0  0
   21.8994   70.0292    6.8786 H   0  0  0  0  0  0  0  0  0  0  0  0
   21.8446   68.2877    6.4980 H   0  0  0  0  0  0  0  0  0  0  0  0
   24.0536   68.4791    5.3335 H   0  0  0  0  0  0  0  0  0  0  0  0
   24.0956   70.2160    5.7045 H   0  0  0  0  0  0  0  0  0  0  0  0
   21.9737   68.8117    4.0092 H   0  0  0  0  0  0  0  0  0  0  0  0
   23.3006   69.8205    3.3989 H   0  0  0  0  0  0  0  0  0  0  0  0
   22.0169   70.5513    4.3828 H   0  0  0  0  0  0  0  0  0  0  0  0
  1  2  1  0  0  0  0
  1 20  1  0  0  0  0
  1 21  1  0  0  0  0
  1 22  1  0  0  0  0
  2  3  1  0  0  0  0
  2 23  1  0  0  0  0
  2 24  1  0  0  0  0
  3  4  1  0  0  0  0
  4  5  1  0  0  0  0
  4 10  2  0  0  0  0
  5  6  2  0  0  0  0
  6  7  1  0  0  0  0
  6 13  1  0  0  0  0
  7  8  2  0  0  0  0
  7 25  1  0  0  0  0
  8  9  1  0  0  0  0
  8 10  1  0  0  0  0
  9 26  1  0  0  0  0
  9 27  1  0  0  0  0
 10 11  1  0  0  0  0
 11 12  3  0  0  0  0
 13 14  1  0  0  0  0
 13 28  1  0  0  0  0
 14 15  2  0  0  0  0
 14 16  1  0  0  0  0
 16 17  1  0  0  0  0
 16 29  1  0  0  0  0
 16 30  1  0  0  0  0
 17 18  1  0  0  0  0
 17 31  1  0  0  0  0
 17 32  1  0  0  0  0
 18 19  1  0  0  0  0
 18 33  1  0  0  0  0
 18 34  1  0  0  0  0
 19 35  1  0  0  0  0
 19 36  1  0  0  0  0
 19 37  1  0  0  0  0
M  END
$$$$
jnk1_abbott_06_6c
  MOE2024           3D
jnk1_abbott_06_6c
 34 34  0  0  0  0  0  0  0  0999 V2000
   19.8310   61.5050    9.2490 C   0  0  0  0  0  0  0  0  0  0  0  0
   20.3970   62.9220    9.3710 C   0  0  0  0  0  0  0  0  0  0  0  0
   19.8280   63.5200   10.5320 O   0  0  0  0  0  0  0  0  0  0  0  0
   20.1130   64.8410   10.8330 C   0  0  0  0  0  0  0  0  0  0  0  0
   20.9530   65.5060    9.9940 N   0  0  0  0  0  0  0  0  0  0  0  0
   21.2650   66.7790   10.2820 C   0  0  0  0  0  0  0  0  0  0  0  0
   20.7380   67.4610   11.3690 C   0  0  0  0  0  0  0  0  0  0  0  0
   19.8860   66.7820   12.2220 C   0  0  0  0  0  0  0  0  0  0  0  0
   19.4180   67.5110   13.3090 N   0  0  0  0  0  0  0  0  0  0  0  0
   19.5610   65.4400   11.9710 C   0  0  0  0  0  0  0  0  0  0  0  0
   18.6940   64.6560   12.8430 C   0  0  0  0  0  0  0  0  0  0  0  0
   18.0080   64.0260   13.5300 N   0  0  0  0  0  0  0  0  0  0  0  0
   22.1590   67.2920    9.3500 N   0  0  0  0  0  0  0  0  0  0  0  0
   22.5690   68.5810    9.1470 C   0  0  0  0  0  0  0  0  0  0  0  0
   22.1130   69.4890    9.8090 O   0  0  0  0  0  0  0  0  0  0  0  0
   23.5800   68.7940    8.0200 C   0  0  0  0  0  0  0  0  0  0  0  0
   24.6590   69.8060    8.4710 C   0  0  0  0  0  0  0  0  0  0  0  0
   22.8460   69.3940    6.8020 C   0  0  0  0  0  0  0  0  0  0  0  0
   20.2500   61.0220    8.3660 H   0  0  0  0  0  0  0  0  0  0  0  0
   18.7460   61.5540    9.1560 H   0  0  0  0  0  0  0  0  0  0  0  0
   20.0950   60.9310   10.1370 H   0  0  0  0  0  0  0  0  0  0  0  0
   20.1330   63.5040    8.4870 H   0  0  0  0  0  0  0  0  0  0  0  0
   21.4810   62.8820    9.4680 H   0  0  0  0  0  0  0  0  0  0  0  0
   20.9880   68.4970   11.5460 H   0  0  0  0  0  0  0  0  0  0  0  0
   18.8020   67.0760   13.9810 H   0  0  0  0  0  0  0  0  0  0  0  0
   19.6950   68.4750   13.4280 H   0  0  0  0  0  0  0  0  0  0  0  0
   22.5670   66.6100    8.7280 H   0  0  0  0  0  0  0  0  0  0  0  0
   24.0440   67.8410    7.7680 H   0  0  0  0  0  0  0  0  0  0  0  0
   24.1850   70.7550    8.7210 H   0  0  0  0  0  0  0  0  0  0  0  0
   25.3740   69.9580    7.6620 H   0  0  0  0  0  0  0  0  0  0  0  0
   25.1790   69.4170    9.3470 H   0  0  0  0  0  0  0  0  0  0  0  0
   22.3930   70.3450    7.0820 H   0  0  0  0  0  0  0  0  0  0  0  0
   22.0690   68.7050    6.4710 H   0  0  0  0  0  0  0  0  0  0  0  0
   23.5570   69.5550    5.9920 H   0  0  0  0  0  0  0  0  0  0  0  0
  1  2  1  0  0  0  0
  1 19  1  0  0  0  0
  1 20  1  0  0  0  0
  1 21  1  0  0  0  0
  2  3  1  0  0  0  0
  2 22  1  0  0  0  0
  2 23  1  0  0  0  0
  3  4  1  0  0  0  0
  4  5  1  0  0  0  0
  4 10  2  0  0  0  0
  5  6  2  0  0  0  0
  6  7  1  0  0  0  0
  6 13  1  0  0  0  0
  7  8  2  0  0  0  0
  7 24  1  0  0  0  0
  8  9  1  0  0  0  0
  8 10  1  0  0  0  0
  9 25  1  0  0  0  0
  9 26  1  0  0  0  0
 10 11  1  0  0  0  0
 11 12  3  0  0  0  0
 13 14  1  0  0  0  0
 13 27  1  0  0  0  0
 14 15  2  0  0  0  0
 14 16  1  0  0  0  0
 16 17  1  0  0  0  0
 16 18  1  0  0  0  0
 16 28  1  0  0  0  0
 17 29  1  0  0  0  0
 17 30  1  0  0  0  0
 17 31  1  0  0  0  0
 18 32  1  0  0  0  0
 18 33  1  0  0  0  0
 18 34  1  0  0  0  0
M  END
$$$$
jnk1_abbott_07_6d
  MOE2024           3D
jnk1_abbott_07_6d
 37 37  0  0  0  0  0  0  0  0999 V2000
   20.0470   61.4230    9.4010 C   0  0  0  0  0  0  0  0  0  0  0  0
   20.5040   62.8830    9.4520 C   0  0  0  0  0  0  0  0  0  0  0  0
   19.9100   63.4850   10.5980 O   0  0  0  0  0  0  0  0  0  0  0  0
   20.0970   64.8360   10.8380 C   0  0  0  0  0  0  0  0  0  0  0  0
   20.8700   65.5260    9.9550 N   0  0  0  0  0  0  0  0  0  0  0  0
   21.0870   66.8300   10.1830 C   0  0  0  0  0  0  0  0  0  0  0  0
   20.5280   67.5170   11.2510 C   0  0  0  0  0  0  0  0  0  0  0  0
   19.7450   66.8130   12.1480 C   0  0  0  0  0  0  0  0  0  0  0  0
   19.2400   67.5500   13.2130 N   0  0  0  0  0  0  0  0  0  0  0  0
   19.5190   65.4400   11.9600 C   0  0  0  0  0  0  0  0  0  0  0  0
   18.7310   64.6310   12.8810 C   0  0  0  0  0  0  0  0  0  0  0  0
   18.1090   64.0150   13.6180 N   0  0  0  0  0  0  0  0  0  0  0  0
   21.8880   67.3840    9.1930 N   0  0  0  0  0  0  0  0  0  0  0  0
   22.5130   68.6000    9.1560 C   0  0  0  0  0  0  0  0  0  0  0  0
   22.4670   69.3550   10.1010 O   0  0  0  0  0  0  0  0  0  0  0  0
   23.2670   68.9420    7.8880 C   0  0  0  0  0  0  0  0  0  0  0  0
   22.4100   69.9450    7.0730 C   0  0  0  0  0  0  0  0  0  0  0  0
   21.1550   69.2510    6.5160 C   0  0  0  0  0  0  0  0  0  0  0  0
   23.2650   70.4520    5.9030 C   0  0  0  0  0  0  0  0  0  0  0  0
   20.4880   60.9340    8.5310 H   0  0  0  0  0  0  0  0  0  0  0  0
   18.9600   61.3840    9.3280 H   0  0  0  0  0  0  0  0  0  0  0  0
   20.3690   60.9100   10.3070 H   0  0  0  0  0  0  0  0  0  0  0  0
   20.1810   63.4040    8.5500 H   0  0  0  0  0  0  0  0  0  0  0  0
   21.5900   62.9290    9.5300 H   0  0  0  0  0  0  0  0  0  0  0  0
   20.6990   68.5750   11.3790 H   0  0  0  0  0  0  0  0  0  0  0  0
   18.6710   67.0980   13.9150 H   0  0  0  0  0  0  0  0  0  0  0  0
   19.4430   68.5370   13.2850 H   0  0  0  0  0  0  0  0  0  0  0  0
   22.0310   66.8030    8.3790 H   0  0  0  0  0  0  0  0  0  0  0  0
   23.4330   68.0380    7.3030 H   0  0  0  0  0  0  0  0  0  0  0  0
   24.2260   69.3940    8.1390 H   0  0  0  0  0  0  0  0  0  0  0  0
   22.0950   70.7680    7.7150 H   0  0  0  0  0  0  0  0  0  0  0  0
   21.4530   68.4240    5.8710 H   0  0  0  0  0  0  0  0  0  0  0  0
   20.5690   69.9670    5.9410 H   0  0  0  0  0  0  0  0  0  0  0  0
   20.5550   68.8690    7.3420 H   0  0  0  0  0  0  0  0  0  0  0  0
   23.5650   69.6100    5.2800 H   0  0  0  0  0  0  0  0  0  0  0  0
   24.1530   70.9510    6.2920 H   0  0  0  0  0  0  0  0  0  0  0  0
   22.6840   71.1570    5.3080 H   0  0  0  0  0  0  0  0  0  0  0  0
  1  2  1  0  0  0  0
  1 20  1  0  0  0  0
  1 21  1  0  0  0  0
  1 22  1  0  0  0  0
  2  3  1  0  0  0  0
  2 23  1  0  0  0  0
  2 24  1  0  0  0  0
  3  4  1  0  0  0  0
  4  5  1  0  0  0  0
  4 10  2  0  0  0  0
  5  6  2  0  0  0  0
  6  7  1  0  0  0  0
  6 13  1  0  0  0  0
  7  8  2  0  0  0  0
  7 25  1  0  0  0  0
  8  9  1  0  0  0  0
  8 10  1  0  0  0  0
  9 26  1  0  0  0  0
  9 27  1  0  0  0  0
 10 11  1  0  0  0  0
 11 12  3  0  0  0  0
 13 14  1  0  0  0  0
 13 28  1  0  0  0  0
 14 15  2  0  0  0  0
 14 16  1  0  0  0  0
 16 17  1  0  0  0  0
 16 29  1  0  0  0  0
 16 30  1  0  0  0  0
 17 18  1  0  0  0  0
 17 19  1  0  0  0  0
 17 31  1  0  0  0  0
 18 32  1  0  0  0  0
 18 33  1  0  0  0  0
 18 34  1  0  0  0  0
 19 35  1  0  0  0  0
 19 36  1  0  0  0  0
 19 37  1  0  0  0  0
M  END
$$$$
jnk1_abbott_08_6e
  MOE2024           3D
jnk1_abbott_08_6e
 38 39  0  0  0  0  0  0  0  0999 V2000
   20.1800   61.4160    9.5020 C   0  0  0  0  0  0  0  0  0  0  0  0
   20.5830   62.8930    9.5280 C   0  0  0  0  0  0  0  0  0  0  0  0
   19.9540   63.4960   10.6560 O   0  0  0  0  0  0  0  0  0  0  0  0
   20.1110   64.8530   10.8840 C   0  0  0  0  0  0  0  0  0  0  0  0
   20.8750   65.5490    9.9990 N   0  0  0  0  0  0  0  0  0  0  0  0
   21.0690   66.8580   10.2180 C   0  0  0  0  0  0  0  0  0  0  0  0
   20.5010   67.5420   11.2820 C   0  0  0  0  0  0  0  0  0  0  0  0
   19.7210   66.8340   12.1770 C   0  0  0  0  0  0  0  0  0  0  0  0
   19.1960   67.5760   13.2270 N   0  0  0  0  0  0  0  0  0  0  0  0
   19.5100   65.4570   11.9940 C   0  0  0  0  0  0  0  0  0  0  0  0
   18.7110   64.6450   12.9050 C   0  0  0  0  0  0  0  0  0  0  0  0
   18.0780   63.9930   13.6230 N   0  0  0  0  0  0  0  0  0  0  0  0
   21.8460   67.4200    9.2280 N   0  0  0  0  0  0  0  0  0  0  0  0
   22.5760   68.5400    9.2410 C   0  0  0  0  0  0  0  0  0  0  0  0
   22.7220   69.2400   10.2410 O   0  0  0  0  0  0  0  0  0  0  0  0
   23.2730   68.9640    7.9380 C   0  0  0  0  0  0  0  0  0  0  0  0
   23.0510   68.0260    6.7510 C   0  0  0  0  0  0  0  0  0  0  0  0
   23.5980   66.7370    6.7550 C   0  0  0  0  0  0  0  0  0  0  0  0
   23.3710   65.8720    5.6850 C   0  0  0  0  0  0  0  0  0  0  0  0
   22.5970   66.2920    4.6030 C   0  0  0  0  0  0  0  0  0  0  0  0
   22.0540   67.5760    4.5910 C   0  0  0  0  0  0  0  0  0  0  0  0
   22.2790   68.4420    5.6620 C   0  0  0  0  0  0  0  0  0  0  0  0
   20.6470   60.9270    8.6470 H   0  0  0  0  0  0  0  0  0  0  0  0
   19.0960   61.3370    9.4180 H   0  0  0  0  0  0  0  0  0  0  0  0
   20.5100   60.9330   10.4220 H   0  0  0  0  0  0  0  0  0  0  0  0
   20.2520   63.3840    8.6130 H   0  0  0  0  0  0  0  0  0  0  0  0
   21.6660   62.9810    9.6160 H   0  0  0  0  0  0  0  0  0  0  0  0
   20.6650   68.6020   11.4100 H   0  0  0  0  0  0  0  0  0  0  0  0
   18.6190   67.1270   13.9240 H   0  0  0  0  0  0  0  0  0  0  0  0
   19.3910   68.5650   13.2940 H   0  0  0  0  0  0  0  0  0  0  0  0
   21.8680   66.9060    8.3590 H   0  0  0  0  0  0  0  0  0  0  0  0
   24.3450   69.0190    8.1310 H   0  0  0  0  0  0  0  0  0  0  0  0
   22.9030   69.9520    7.6630 H   0  0  0  0  0  0  0  0  0  0  0  0
   24.1990   66.4110    7.5910 H   0  0  0  0  0  0  0  0  0  0  0  0
   23.7950   64.8780    5.6930 H   0  0  0  0  0  0  0  0  0  0  0  0
   22.4170   65.6220    3.7750 H   0  0  0  0  0  0  0  0  0  0  0  0
   21.4570   67.9010    3.7510 H   0  0  0  0  0  0  0  0  0  0  0  0
   21.8570   69.4360    5.6500 H   0  0  0  0  0  0  0  0  0  0  0  0
  1  2  1  0  0  0  0
  1 23  1  0  0  0  0
  1 24  1  0  0  0  0
  1 25  1  0  0  0  0
  2  3  1  0  0  0  0
  2 26  1  0  0  0  0
  2 27  1  0  0  0  0
  3  4  1  0  0  0  0
  4  5  1  0  0  0  0
  4 10  2  0  0  0  0
  5  6  2  0  0  0  0
  6  7  1  0  0  0  0
  6 13  1  0  0  0  0
  7  8  2  0  0  0  0
  7 28  1  0  0  0  0
  8  9  1  0  0  0  0
  8 10  1  0  0  0  0
  9 29  1  0  0  0  0
  9 30  1  0  0  0  0
 10 11  1  0  0  0  0
 11 12  3  0  0  0  0
 13 14  1  0  0  0  0
 13 31  1  0  0  0  0
 14 15  2  0  0  0  0
 14 16  1  0  0  0  0
 16 17  1  0  0  0  0
 16 32  1  0  0  0  0
 16 33  1  0  0  0  0
 17 18  1  0  0  0  0
 17 22  2  0  0  0  0
 18 19  2  0  0  0  0
 18 34  1  0  0  0  0
 19 20  1  0  0  0  0
 19 35  1  0  0  0  0
 20 21  2  0  0  0  0
 20 36  1  0  0  0  0
 21 22  1  0  0  0  0
 21 37  1  0  0  0  0
 22 38  1  0  0  0  0
M  END
$$$$
jnk1_abbott_09_6f
  MOE2024           3D
jnk1_abbott_09_6f
 38 39  0  0  0  0  0  0  0  0999 V2000
   19.9990   61.5080    9.3260 C   0  0  0  0  0  0  0  0  0  0  0  0
   20.4780   62.9600    9.3990 C   0  0  0  0  0  0  0  0  0  0  0  0
   19.8790   63.5580   10.5470 O   0  0  0  0  0  0  0  0  0  0  0  0
   20.0890   64.9010   10.8090 C   0  0  0  0  0  0  0  0  0  0  0  0
   20.8730   65.5900    9.9380 N   0  0  0  0  0  0  0  0  0  0  0  0
   21.1160   66.8850   10.1850 C   0  0  0  0  0  0  0  0  0  0  0  0
   20.5750   67.5670   11.2640 C   0  0  0  0  0  0  0  0  0  0  0  0
   19.7780   66.8640   12.1510 C   0  0  0  0  0  0  0  0  0  0  0  0
   19.2930   67.5900   13.2330 N   0  0  0  0  0  0  0  0  0  0  0  0
   19.5240   65.4990   11.9400 C   0  0  0  0  0  0  0  0  0  0  0  0
   18.7230   64.6860   12.8480 C   0  0  0  0  0  0  0  0  0  0  0  0
   18.0900   64.0310   13.5630 N   0  0  0  0  0  0  0  0  0  0  0  0
   21.9660   67.3980    9.2280 N   0  0  0  0  0  0  0  0  0  0  0  0
   22.6430   68.5490    9.1950 C   0  0  0  0  0  0  0  0  0  0  0  0
   22.6020   69.4100   10.0710 O   0  0  0  0  0  0  0  0  0  0  0  0
   23.5242   68.7430    7.9761 C   0  0  0  0  0  0  0  0  0  0  0  0
   22.6075   68.9914    6.7820 C   0  0  0  0  0  0  0  0  0  0  0  0
   22.1843   67.9565    5.9303 C   0  0  0  0  0  0  0  0  0  0  0  0
   22.6617   66.3055    6.1952 Cl  0  0  0  0  0  0  0  0  0  0  0  0
   21.3533   68.2339    4.8432 C   0  0  0  0  0  0  0  0  0  0  0  0
   20.9341   69.5361    4.6011 C   0  0  0  0  0  0  0  0  0  0  0  0
   21.3392   70.5645    5.4455 C   0  0  0  0  0  0  0  0  0  0  0  0
   22.1687   70.2908    6.5300 C   0  0  0  0  0  0  0  0  0  0  0  0
   20.4399   61.0211    8.4565 H   0  0  0  0  0  0  0  0  0  0  0  0
   18.9130   61.4870    9.2400 H   0  0  0  0  0  0  0  0  0  0  0  0
   20.3030   60.9790   10.2290 H   0  0  0  0  0  0  0  0  0  0  0  0
   20.1740   63.4970    8.5010 H   0  0  0  0  0  0  0  0  0  0  0  0
   21.5630   62.9890    9.4900 H   0  0  0  0  0  0  0  0  0  0  0  0
   20.7700   68.6200   11.4090 H   0  0  0  0  0  0  0  0  0  0  0  0
   18.7180   67.1370   13.9290 H   0  0  0  0  0  0  0  0  0  0  0  0
   19.5160   68.5720   13.3230 H   0  0  0  0  0  0  0  0  0  0  0  0
   22.0980   66.8080    8.4190 H   0  0  0  0  0  0  0  0  0  0  0  0
   24.1289   67.8616    7.8249 H   0  0  0  0  0  0  0  0  0  0  0  0
   24.1357   69.6195    8.1395 H   0  0  0  0  0  0  0  0  0  0  0  0
   21.0448   67.4457    4.2062 H   0  0  0  0  0  0  0  0  0  0  0  0
   20.3038   69.7473    3.7746 H   0  0  0  0  0  0  0  0  0  0  0  0
   21.0155   71.5581    5.2636 H   0  0  0  0  0  0  0  0  0  0  0  0
   22.4653   71.0853    7.1682 H   0  0  0  0  0  0  0  0  0  0  0  0
  1  2  1  0  0  0  0
  1 24  1  0  0  0  0
  1 25  1  0  0  0  0
  1 26  1  0  0  0  0
  2  3  1  0  0  0  0
  2 27  1  0  0  0  0
  2 28  1  0  0  0  0
  3  4  1  0  0  0  0
  4  5  1  0  0  0  0
  4 10  2  0  0  0  0
  5  6  2  0  0  0  0
  6  7  1  0  0  0  0
  6 13  1  0  0  0  0
  7  8  2  0  0  0  0
  7 29  1  0  0  0  0
  8  9  1  0  0  0  0
  8 10  1  0  0  0  0
  9 30  1  0  0  0  0
  9 31  1  0  0  0  0
 10 11  1  0  0  0  0
 11 12  3  0  0  0  0
 13 14  1  0  0  0  0
 13 32  1  0  0  0  0
 14 15  2  0  0  0  0
 14 16  1  0  0  0  0
 16 17  1  0  0  0  0
 16 33  1  0  0  0  0
 16 34  1  0  0  0  0
 17 18  1  0  0  0  0
 17 23  2  0  0  0  0
 18 19  1  0  0  0  0
 18 20  2  0  0  0  0
 20 21  1  0  0  0  0
 20 35  1  0  0  0  0
 21 22  2  0  0  0  0
 21 36  1  0  0  0  0
 22 23  1  0  0  0  0
 22 37  1  0  0  0  0
 23 38  1  0  0  0  0
M  END
$$$$
jnk1_abbott_10_6g
  MOE2024           3D
jnk1_abbott_10_6g
 38 39  0  0  0  0  0  0  0  0999 V2000
   19.8080   61.7140    8.8120 C   0  0  0  0  0  0  0  0  0  0  0  0
   20.3110   63.1490    8.9890 C   0  0  0  0  0  0  0  0  0  0  0  0
   19.7870   63.6470   10.2160 O   0  0  0  0  0  0  0  0  0  0  0  0
   20.0330   64.9580   10.5850 C   0  0  0  0  0  0  0  0  0  0  0  0
   20.7800   65.7180    9.7380 N   0  0  0  0  0  0  0  0  0  0  0  0
   21.0560   66.9810   10.0930 C   0  0  0  0  0  0  0  0  0  0  0  0
   20.5880   67.5650   11.2590 C   0  0  0  0  0  0  0  0  0  0  0  0
   19.8310   66.7910   12.1200 C   0  0  0  0  0  0  0  0  0  0  0  0
   19.4240   67.4230   13.2870 N   0  0  0  0  0  0  0  0  0  0  0  0
   19.5410   65.4550   11.7980 C   0  0  0  0  0  0  0  0  0  0  0  0
   18.7770   64.5710   12.6710 C   0  0  0  0  0  0  0  0  0  0  0  0
   18.1730   63.8610   13.3570 N   0  0  0  0  0  0  0  0  0  0  0  0
   21.8610   67.5770    9.1490 N   0  0  0  0  0  0  0  0  0  0  0  0
   22.6130   68.6800    9.2250 C   0  0  0  0  0  0  0  0  0  0  0  0
   22.6780   69.4140   10.2090 O   0  0  0  0  0  0  0  0  0  0  0  0
   23.5100   68.9620    8.0250 C   0  0  0  0  0  0  0  0  0  0  0  0
   22.7960   68.8660    6.6830 C   0  0  0  0  0  0  0  0  0  0  0  0
   22.0940   69.9670    6.1840 C   0  0  0  0  0  0  0  0  0  0  0  0
   21.4130   69.8750    4.9730 C   0  0  0  0  0  0  0  0  0  0  0  0
   20.5130   71.2240    4.3880 Cl  0  0  0  0  0  0  0  0  0  0  0  0
   21.4440   68.6860    4.2450 C   0  0  0  0  0  0  0  0  0  0  0  0
   22.1510   67.5850    4.7310 C   0  0  0  0  0  0  0  0  0  0  0  0
   22.8240   67.6740    5.9500 C   0  0  0  0  0  0  0  0  0  0  0  0
   20.1950   61.3050    7.8790 H   0  0  0  0  0  0  0  0  0  0  0  0
   18.7180   61.7110    8.7870 H   0  0  0  0  0  0  0  0  0  0  0  0
   20.1530   61.1030    9.6470 H   0  0  0  0  0  0  0  0  0  0  0  0
   19.9660   63.7680    8.1600 H   0  0  0  0  0  0  0  0  0  0  0  0
   21.4010   63.1590    9.0200 H   0  0  0  0  0  0  0  0  0  0  0  0
   20.8080   68.5970   11.4890 H   0  0  0  0  0  0  0  0  0  0  0  0
   18.8820   66.9170   13.9730 H   0  0  0  0  0  0  0  0  0  0  0  0
   19.6710   68.3890   13.4520 H   0  0  0  0  0  0  0  0  0  0  0  0
   21.8880   67.1060    8.2550 H   0  0  0  0  0  0  0  0  0  0  0  0
   24.3280   68.2420    8.0310 H   0  0  0  0  0  0  0  0  0  0  0  0
   23.9130   69.9700    8.1280 H   0  0  0  0  0  0  0  0  0  0  0  0
   22.0810   70.8930    6.7400 H   0  0  0  0  0  0  0  0  0  0  0  0
   20.9200   68.6170    3.3030 H   0  0  0  0  0  0  0  0  0  0  0  0
   22.1770   66.6660    4.1650 H   0  0  0  0  0  0  0  0  0  0  0  0
   23.3680   66.8210    6.3290 H   0  0  0  0  0  0  0  0  0  0  0  0
  1  2  1  0  0  0  0
  1 24  1  0  0  0  0
  1 25  1  0  0  0  0
  1 26  1  0  0  0  0
  2  3  1  0  0  0  0
  2 27  1  0  0  0  0
  2 28  1  0  0  0  0
  3  4  1  0  0  0  0
  4  5  1  0  0  0  0
  4 10  2  0  0  0  0
  5  6  2  0  0  0  0
  6  7  1  0  0  0  0
  6 13  1  0  0  0  0
  7  8  2  0  0  0  0
  7 29  1  0  0  0  0
  8  9  1  0  0  0  0
  8 10  1  0  0  0  0
  9 30  1  0  0  0  0
  9 31  1  0  0  0  0
 10 11  1  0  0  0  0
 11 12  3  0  0  0  0
 13 14  1  0  0  0  0
 13 32  1  0  0  0  0
 14 15  2  0  0  0  0
 14 16  1  0  0  0  0
 16 17  1  0  0  0  0
 16 33  1  0  0  0  0
 16 34  1  0  0  0  0
 17 18  1  0  0  0  0
 17 23  2  0  0  0  0
 18 19  2  0  0  0  0
 18 35  1  0  0  0  0
 19 20  1  0  0  0  0
 19 21  1  0  0  0  0
 21 22  2  0  0  0  0
 21 36  1  0  0  0  0
 22 23  1  0  0  0  0
 22 37  1  0  0  0  0
 23 38  1  0  0  0  0
M  END
$$$$
jnk1_abbott_11_6h
  MOE2024           3D
jnk1_abbott_11_6h
 38 39  0  0  0  0  0  0  0  0999 V2000
   18.6170   62.5240    8.1390 C   0  0  0  0  0  0  0  0  0  0  0  0
   19.4450   63.7640    8.4870 C   0  0  0  0  0  0  0  0  0  0  0  0
   19.2220   64.0660    9.8610 O   0  0  0  0  0  0  0  0  0  0  0  0
   19.8160   65.1830   10.4230 C   0  0  0  0  0  0  0  0  0  0  0  0
   20.6010   65.9480    9.6130 N   0  0  0  0  0  0  0  0  0  0  0  0
   21.2120   67.0160   10.1470 C   0  0  0  0  0  0  0  0  0  0  0  0
   21.0540   67.4000   11.4700 C   0  0  0  0  0  0  0  0  0  0  0  0
   20.2510   66.6260   12.2870 C   0  0  0  0  0  0  0  0  0  0  0  0
   20.1490   67.0580   13.6040 N   0  0  0  0  0  0  0  0  0  0  0  0
   19.6110   65.4870   11.7730 C   0  0  0  0  0  0  0  0  0  0  0  0
   18.7640   64.6190   12.5830 C   0  0  0  0  0  0  0  0  0  0  0  0
   18.0890   63.9240   13.2170 N   0  0  0  0  0  0  0  0  0  0  0  0
   21.9580   67.6880    9.2020 N   0  0  0  0  0  0  0  0  0  0  0  0
   22.9860   68.5280    9.3630 C   0  0  0  0  0  0  0  0  0  0  0  0
   23.4910   68.7730   10.4570 O   0  0  0  0  0  0  0  0  0  0  0  0
   23.5740   69.2100    8.1200 C   0  0  0  0  0  0  0  0  0  0  0  0
   22.8300   68.9420    6.8120 C   0  0  0  0  0  0  0  0  0  0  0  0
   22.8810   67.6780    6.2080 C   0  0  0  0  0  0  0  0  0  0  0  0
   22.1850   67.4380    5.0230 C   0  0  0  0  0  0  0  0  0  0  0  0
   21.4380   68.4590    4.4360 C   0  0  0  0  0  0  0  0  0  0  0  0
   20.5650   68.1660    2.9790 Cl  0  0  0  0  0  0  0  0  0  0  0  0
   21.3890   69.7190    5.0300 C   0  0  0  0  0  0  0  0  0  0  0  0
   22.0830   69.9620    6.2150 C   0  0  0  0  0  0  0  0  0  0  0  0
   18.7680   62.2690    7.0900 H   0  0  0  0  0  0  0  0  0  0  0  0
   17.5610   62.7310    8.3140 H   0  0  0  0  0  0  0  0  0  0  0  0
   18.9330   61.6890    8.7650 H   0  0  0  0  0  0  0  0  0  0  0  0
   19.1320   64.6040    7.8670 H   0  0  0  0  0  0  0  0  0  0  0  0
   20.5030   63.5630    8.3180 H   0  0  0  0  0  0  0  0  0  0  0  0
   21.5460   68.2810   11.8530 H   0  0  0  0  0  0  0  0  0  0  0  0
   19.5840   66.5420   14.2630 H   0  0  0  0  0  0  0  0  0  0  0  0
   20.6390   67.8900   13.9020 H   0  0  0  0  0  0  0  0  0  0  0  0
   21.6870   67.5200    8.2430 H   0  0  0  0  0  0  0  0  0  0  0  0
   24.6010   68.8640    8.0000 H   0  0  0  0  0  0  0  0  0  0  0  0
   23.5720   70.2860    8.2940 H   0  0  0  0  0  0  0  0  0  0  0  0
   23.4620   66.8880    6.6610 H   0  0  0  0  0  0  0  0  0  0  0  0
   22.2240   66.4630    4.5620 H   0  0  0  0  0  0  0  0  0  0  0  0
   20.8130   70.5100    4.5720 H   0  0  0  0  0  0  0  0  0  0  0  0
   22.0420   70.9390    6.6730 H   0  0  0  0  0  0  0  0  0  0  0  0
  1  2  1  0  0  0  0
  1 24  1  0  0  0  0
  1 25  1  0  0  0  0
  1 26  1  0  0  0  0
  2  3  1  0  0  0  0
  2 27  1  0  0  0  0
  2 28  1  0  0  0  0
  3  4  1  0  0  0  0
  4  5  1  0  0  0  0
  4 10  2  0  0  0  0
  5  6  2  0  0  0  0
  6  7  1  0  0  0  0
  6 13  1  0  0  0  0
  7  8  2  0  0  0  0
  7 29  1  0  0  0  0
  8  9  1  0  0  0  0
  8 10  1  0  0  0  0
  9 30  1  0  0  0  0
  9 31  1  0  0  0  0
 10 11  1  0  0  0  0
 11 12  3  0  0  0  0
 13 14  1  0  0  0  0
 13 32  1  0  0  0  0
 14 15  2  0  0  0  0
 14 16  1  0  0  0  0
 16 17  1  0  0  0  0
 16 33  1  0  0  0  0
 16 34  1  0  0  0  0
 17 18  1  0  0  0  0
 17 23  2  0  0  0  0
 18 19  2  0  0  0  0
 18 35  1  0  0  0  0
 19 20  1  0  0  0  0
 19 36  1  0  0  0  0
 20 21  1  0  0  0  0
 20 22  2  0  0  0  0
 22 23  1  0  0  0  0
 22 37  1  0  0  0  0
 23 38  1  0  0  0  0
M  END
$$$$
jnk1_abbott_12_6i
  MOE2024           3D
jnk1_abbott_12_6i
 41 42  0  0  0  0  0  0  0  0999 V2000
   20.0660   61.5340    9.2870 C   0  0  0  0  0  0  0  0  0  0  0  0
   20.4790   63.0060    9.3640 C   0  0  0  0  0  0  0  0  0  0  0  0
   19.8920   63.5620   10.5370 O   0  0  0  0  0  0  0  0  0  0  0  0
   20.0680   64.9080   10.8180 C   0  0  0  0  0  0  0  0  0  0  0  0
   20.7960   65.6390    9.9330 N   0  0  0  0  0  0  0  0  0  0  0  0
   21.0080   66.9350   10.1980 C   0  0  0  0  0  0  0  0  0  0  0  0
   20.4990   67.5770   11.3180 C   0  0  0  0  0  0  0  0  0  0  0  0
   19.7510   66.8340   12.2140 C   0  0  0  0  0  0  0  0  0  0  0  0
   19.2800   67.5280   13.3210 N   0  0  0  0  0  0  0  0  0  0  0  0
   19.5190   65.4670   11.9770 C   0  0  0  0  0  0  0  0  0  0  0  0
   18.7500   64.6180   12.8810 C   0  0  0  0  0  0  0  0  0  0  0  0
   18.1410   63.9360   13.5910 N   0  0  0  0  0  0  0  0  0  0  0  0
   21.7390   67.5240    9.1920 N   0  0  0  0  0  0  0  0  0  0  0  0
   22.4860   68.6310    9.1900 C   0  0  0  0  0  0  0  0  0  0  0  0
   22.6690   69.3210   10.1910 O   0  0  0  0  0  0  0  0  0  0  0  0
   23.1590   69.0400    7.8680 C   0  0  0  0  0  0  0  0  0  0  0  0
   22.9990   68.0330    6.7090 C   0  0  0  0  0  0  0  0  0  0  0  0
   22.3520   68.3660    5.5030 C   0  0  0  0  0  0  0  0  0  0  0  0
   21.7890   69.7530    5.2430 C   0  0  0  0  0  0  0  0  0  0  0  0
   22.1930   67.3950    4.5100 C   0  0  0  0  0  0  0  0  0  0  0  0
   22.6720   66.1010    4.6980 C   0  0  0  0  0  0  0  0  0  0  0  0
   23.3300   65.7720    5.8760 C   0  0  0  0  0  0  0  0  0  0  0  0
   23.5040   66.7350    6.8680 C   0  0  0  0  0  0  0  0  0  0  0  0
   20.5020   61.0810    8.3970 H   0  0  0  0  0  0  0  0  0  0  0  0
   18.9790   61.4640    9.2360 H   0  0  0  0  0  0  0  0  0  0  0  0
   20.4230   61.0100   10.1740 H   0  0  0  0  0  0  0  0  0  0  0  0
   20.1220   63.5380    8.4820 H   0  0  0  0  0  0  0  0  0  0  0  0
   21.5650   63.0840    9.4200 H   0  0  0  0  0  0  0  0  0  0  0  0
   20.6830   68.6280   11.4850 H   0  0  0  0  0  0  0  0  0  0  0  0
   18.7310   67.0490   14.0210 H   0  0  0  0  0  0  0  0  0  0  0  0
   19.4860   68.5110   13.4270 H   0  0  0  0  0  0  0  0  0  0  0  0
   21.7040   67.0390    8.3070 H   0  0  0  0  0  0  0  0  0  0  0  0
   24.2250   69.1680    8.0580 H   0  0  0  0  0  0  0  0  0  0  0  0
   22.7300   69.9900    7.5510 H   0  0  0  0  0  0  0  0  0  0  0  0
   21.9900   70.3940    6.1010 H   0  0  0  0  0  0  0  0  0  0  0  0
   20.7130   69.6840    5.0840 H   0  0  0  0  0  0  0  0  0  0  0  0
   22.2610   70.1760    4.3560 H   0  0  0  0  0  0  0  0  0  0  0  0
   21.6940   67.6520    3.5870 H   0  0  0  0  0  0  0  0  0  0  0  0
   22.5310   65.3550    3.9290 H   0  0  0  0  0  0  0  0  0  0  0  0
   23.7070   64.7700    6.0230 H   0  0  0  0  0  0  0  0  0  0  0  0
   24.0350   66.4780    7.7720 H   0  0  0  0  0  0  0  0  0  0  0  0
  1  2  1  0  0  0  0
  1 24  1  0  0  0  0
  1 25  1  0  0  0  0
  1 26  1  0  0  0  0
  2  3  1  0  0  0  0
  2 27  1  0  0  0  0
  2 28  1  0  0  0  0
  3  4  1  0  0  0  0
  4  5  1  0  0  0  0
  4 10  2  0  0  0  0
  5  6  2  0  0  0  0
  6  7  1  0  0  0  0
  6 13  1  0  0  0  0
  7  8  2  0  0  0  0
  7 29  1  0  0  0  0
  8  9  1  0  0  0  0
  8 10  1  0  0  0  0
  9 30  1  0  0  0  0
  9 31  1  0  0  0  0
 10 11  1  0  0  0  0
 11 12  3  0  0  0  0
 13 14  1  0  0  0  0
 13 32  1  0  0  0  0
 14 15  2  0  0  0  0
 14 16  1  0  0  0  0
 16 17  1  0  0  0  0
 16 33  1  0  0  0  0
 16 34  1  0  0  0  0
 17 18  1  0  0  0  0
 17 23  2  0  0  0  0
 18 19  1  0  0  0  0
 18 20  2  0  0  0  0
 19 35  1  0  0  0  0
 19 36  1  0  0  0  0
 19 37  1  0  0  0  0
 20 21  1  0  0  0  0
 20 38  1  0  0  0  0
 21 22  2  0  0  0  0
 21 39  1  0  0  0  0
 22 23  1  0  0  0  0
 22 40  1  0  0  0  0
 23 41  1  0  0  0  0
M  END
$$$$
jnk1_abbott_13_6j
  MOE2024           3D
jnk1_abbott_13_6j
 41 42  0  0  0  0  0  0  0  0999 V2000
   19.9160   61.6860    8.8310 C   0  0  0  0  0  0  0  0  0  0  0  0
   20.3630   63.1430    8.9900 C   0  0  0  0  0  0  0  0  0  0  0  0
   19.8450   63.6240   10.2270 O   0  0  0  0  0  0  0  0  0  0  0  0
   20.0620   64.9420   10.5920 C   0  0  0  0  0  0  0  0  0  0  0  0
   20.7760   65.7180    9.7330 N   0  0  0  0  0  0  0  0  0  0  0  0
   21.0240   66.9890   10.0810 C   0  0  0  0  0  0  0  0  0  0  0  0
   20.5610   67.5610   11.2550 C   0  0  0  0  0  0  0  0  0  0  0  0
   19.8300   66.7720   12.1240 C   0  0  0  0  0  0  0  0  0  0  0  0
   19.4100   67.4020   13.2890 N   0  0  0  0  0  0  0  0  0  0  0  0
   19.5640   65.4300   11.8070 C   0  0  0  0  0  0  0  0  0  0  0  0
   18.8120   64.5390   12.6830 C   0  0  0  0  0  0  0  0  0  0  0  0
   18.2150   63.8260   13.3720 N   0  0  0  0  0  0  0  0  0  0  0  0
   21.7430   67.6440    9.1030 N   0  0  0  0  0  0  0  0  0  0  0  0
   22.5280   68.7220    9.1960 C   0  0  0  0  0  0  0  0  0  0  0  0
   22.7820   69.2800   10.2620 O   0  0  0  0  0  0  0  0  0  0  0  0
   23.1580   69.2770    7.9090 C   0  0  0  0  0  0  0  0  0  0  0  0
   22.7010   68.6060    6.6130 C   0  0  0  0  0  0  0  0  0  0  0  0
   23.0290   67.2700    6.3440 C   0  0  0  0  0  0  0  0  0  0  0  0
   22.5620   66.6500    5.1830 C   0  0  0  0  0  0  0  0  0  0  0  0
   22.8710   65.1910    4.9130 C   0  0  0  0  0  0  0  0  0  0  0  0
   21.8000   67.3780    4.2680 C   0  0  0  0  0  0  0  0  0  0  0  0
   21.4900   68.7150    4.5210 C   0  0  0  0  0  0  0  0  0  0  0  0
   21.9350   69.3260    5.6920 C   0  0  0  0  0  0  0  0  0  0  0  0
   20.2990   61.2900    7.8900 H   0  0  0  0  0  0  0  0  0  0  0  0
   18.8270   61.6380    8.8300 H   0  0  0  0  0  0  0  0  0  0  0  0
   20.3050   61.0950    9.6590 H   0  0  0  0  0  0  0  0  0  0  0  0
   19.9730   63.7420    8.1670 H   0  0  0  0  0  0  0  0  0  0  0  0
   21.4510   63.1980    8.9960 H   0  0  0  0  0  0  0  0  0  0  0  0
   20.7660   68.5960   11.4850 H   0  0  0  0  0  0  0  0  0  0  0  0
   18.8750   66.8890   13.9750 H   0  0  0  0  0  0  0  0  0  0  0  0
   19.6390   68.3730   13.4490 H   0  0  0  0  0  0  0  0  0  0  0  0
   21.6640   67.2500    8.1770 H   0  0  0  0  0  0  0  0  0  0  0  0
   24.2390   69.1600    7.9860 H   0  0  0  0  0  0  0  0  0  0  0  0
   22.9110   70.3370    7.8450 H   0  0  0  0  0  0  0  0  0  0  0  0
   23.6460   66.7180    7.0370 H   0  0  0  0  0  0  0  0  0  0  0  0
   23.4720   64.7900    5.7300 H   0  0  0  0  0  0  0  0  0  0  0  0
   23.4250   65.1040    3.9780 H   0  0  0  0  0  0  0  0  0  0  0  0
   21.9400   64.6300    4.8370 H   0  0  0  0  0  0  0  0  0  0  0  0
   21.4500   66.9060    3.3620 H   0  0  0  0  0  0  0  0  0  0  0  0
   20.9040   69.2770    3.8090 H   0  0  0  0  0  0  0  0  0  0  0  0
   21.6880   70.3590    5.8880 H   0  0  0  0  0  0  0  0  0  0  0  0
  1  2  1  0  0  0  0
  1 24  1  0  0  0  0
  1 25  1  0  0  0  0
  1 26  1  0  0  0  0
  2  3  1  0  0  0  0
  2 27  1  0  0  0  0
  2 28  1  0  0  0  0
  3  4  1  0  0  0  0
  4  5  1  0  0  0  0
  4 10  2  0  0  0  0
  5  6  2  0  0  0  0
  6  7  1  0  0  0  0
  6 13  1  0  0  0  0
  7  8  2  0  0  0  0
  7 29  1  0  0  0  0
  8  9  1  0  0  0  0
  8 10  1  0  0  0  0
  9 30  1  0  0  0  0
  9 31  1  0  0  0  0
 10 11  1  0  0  0  0
 11 12  3  0  0  0  0
 13 14  1  0  0  0  0
 13 32  1  0  0  0  0
 14 15  2  0  0  0  0
 14 16  1  0  0  0  0
 16 17  1  0  0  0  0
 16 33  1  0  0  0  0
 16 34  1  0  0  0  0
 17 18  1  0  0  0  0
 17 23  2  0  0  0  0
 18 19  2  0  0  0  0
 18 35  1  0  0  0  0
 19 20  1  0  0  0  0
 19 21  1  0  0  0  0
 20 36  1  0  0  0  0
 20 37  1  0  0  0  0
 20 38  1  0  0  0  0
 21 22  2  0  0  0  0
 21 39  1  0  0  0  0
 22 23  1  0  0  0  0
 22 40  1  0  0  0  0
 23 41  1  0  0  0  0
M  END
$$$$
jnk1_abbott_14_6k
  MOE2024           3D
jnk1_abbott_14_6k
 41 42  0  0  0  0  0  0  0  0999 V2000
   20.1900   61.4120    9.5110 C   0  0  0  0  0  0  0  0  0  0  0  0
   20.5890   62.8890    9.5330 C   0  0  0  0  0  0  0  0  0  0  0  0
   19.9580   63.4930   10.6590 O   0  0  0  0  0  0  0  0  0  0  0  0
   20.1130   64.8510   10.8840 C   0  0  0  0  0  0  0  0  0  0  0  0
   20.8770   65.5480    9.9980 N   0  0  0  0  0  0  0  0  0  0  0  0
   21.0670   66.8570   10.2140 C   0  0  0  0  0  0  0  0  0  0  0  0
   20.4970   67.5430   11.2740 C   0  0  0  0  0  0  0  0  0  0  0  0
   19.7160   66.8360   12.1690 C   0  0  0  0  0  0  0  0  0  0  0  0
   19.1890   67.5800   13.2160 N   0  0  0  0  0  0  0  0  0  0  0  0
   19.5090   65.4580   11.9900 C   0  0  0  0  0  0  0  0  0  0  0  0
   18.7110   64.6480   12.9030 C   0  0  0  0  0  0  0  0  0  0  0  0
   18.0780   63.9960   13.6220 N   0  0  0  0  0  0  0  0  0  0  0  0
   21.8470   67.4180    9.2250 N   0  0  0  0  0  0  0  0  0  0  0  0
   22.5790   68.5370    9.2400 C   0  0  0  0  0  0  0  0  0  0  0  0
   22.7250   69.2350   10.2420 O   0  0  0  0  0  0  0  0  0  0  0  0
   23.2800   68.9610    7.9410 C   0  0  0  0  0  0  0  0  0  0  0  0
   23.0520   68.0270    6.7510 C   0  0  0  0  0  0  0  0  0  0  0  0
   22.2770   68.4460    5.6680 C   0  0  0  0  0  0  0  0  0  0  0  0
   22.0410   67.5810    4.5990 C   0  0  0  0  0  0  0  0  0  0  0  0
   22.5750   66.2910    4.6070 C   0  0  0  0  0  0  0  0  0  0  0  0
   22.3090   65.3500    3.4490 C   0  0  0  0  0  0  0  0  0  0  0  0
   23.3600   65.8720    5.6830 C   0  0  0  0  0  0  0  0  0  0  0  0
   23.5960   66.7370    6.7510 C   0  0  0  0  0  0  0  0  0  0  0  0
   20.6590   60.9220    8.6570 H   0  0  0  0  0  0  0  0  0  0  0  0
   19.1060   61.3290    9.4270 H   0  0  0  0  0  0  0  0  0  0  0  0
   20.5210   60.9320   10.4320 H   0  0  0  0  0  0  0  0  0  0  0  0
   20.2570   63.3760    8.6160 H   0  0  0  0  0  0  0  0  0  0  0  0
   21.6710   62.9790    9.6210 H   0  0  0  0  0  0  0  0  0  0  0  0
   20.6590   68.6040   11.3980 H   0  0  0  0  0  0  0  0  0  0  0  0
   18.6120   67.1320   13.9140 H   0  0  0  0  0  0  0  0  0  0  0  0
   19.3810   68.5690   13.2800 H   0  0  0  0  0  0  0  0  0  0  0  0
   21.8680   66.9050    8.3550 H   0  0  0  0  0  0  0  0  0  0  0  0
   24.3520   69.0080    8.1340 H   0  0  0  0  0  0  0  0  0  0  0  0
   22.9170   69.9520    7.6670 H   0  0  0  0  0  0  0  0  0  0  0  0
   21.8600   69.4420    5.6570 H   0  0  0  0  0  0  0  0  0  0  0  0
   21.4430   67.9110    3.7620 H   0  0  0  0  0  0  0  0  0  0  0  0
   21.6820   65.8500    2.7110 H   0  0  0  0  0  0  0  0  0  0  0  0
   21.7980   64.4590    3.8150 H   0  0  0  0  0  0  0  0  0  0  0  0
   23.2550   65.0630    2.9890 H   0  0  0  0  0  0  0  0  0  0  0  0
   23.7830   64.8790    5.6890 H   0  0  0  0  0  0  0  0  0  0  0  0
   24.2030   66.4100    7.5830 H   0  0  0  0  0  0  0  0  0  0  0  0
  1  2  1  0  0  0  0
  1 24  1  0  0  0  0
  1 25  1  0  0  0  0
  1 26  1  0  0  0  0
  2  3  1  0  0  0  0
  2 27  1  0  0  0  0
  2 28  1  0  0  0  0
  3  4  1  0  0  0  0
  4  5  1  0  0  0  0
  4 10  2  0  0  0  0
  5  6  2  0  0  0  0
  6  7  1  0  0  0  0
  6 13  1  0  0  0  0
  7  8  2  0  0  0  0
  7 29  1  0  0  0  0
  8  9  1  0  0  0  0
  8 10  1  0  0  0  0
  9 30  1  0  0  0  0
  9 31  1  0  0  0  0
 10 11  1  0  0  0  0
 11 12  3  0  0  0  0
 13 14  1  0  0  0  0
 13 32  1  0  0  0  0
 14 15  2  0  0  0  0
 14 16  1  0  0  0  0
 16 17  1  0  0  0  0
 16 33  1  0  0  0  0
 16 34  1  0  0  0  0
 17 18  1  0  0  0  0
 17 23  2  0  0  0  0
 18 19  2  0  0  0  0
 18 35  1  0  0  0  0
 19 20  1  0  0  0  0
 19 36  1  0  0  0  0
 20 21  1  0  0  0  0
 20 22  2  0  0  0  0
 21 37  1  0  0  0  0
 21 38  1  0  0  0  0
 21 39  1  0  0  0  0
 22 23  1  0  0  0  0
 22 40  1  0  0  0  0
 23 41  1  0  0  0  0
M  END
$$$$
jnk1_abbott_15_6l
  MOE2024           3D
jnk1_abbott_15_6l
 42 43  0  0  0  0  0  0  0  0999 V2000
   19.9070   61.5880    9.1970 C   0  0  0  0  0  0  0  0  0  0  0  0
   20.4070   63.0320    9.3050 C   0  0  0  0  0  0  0  0  0  0  0  0
   19.8500   63.5980   10.4860 O   0  0  0  0  0  0  0  0  0  0  0  0
   20.0800   64.9310   10.7820 C   0  0  0  0  0  0  0  0  0  0  0  0
   20.8560   65.6380    9.9170 N   0  0  0  0  0  0  0  0  0  0  0  0
   21.1140   66.9250   10.1960 C   0  0  0  0  0  0  0  0  0  0  0  0
   20.5920   67.5790   11.3030 C   0  0  0  0  0  0  0  0  0  0  0  0
   19.8050   66.8580   12.1820 C   0  0  0  0  0  0  0  0  0  0  0  0
   19.3390   67.5620   13.2870 N   0  0  0  0  0  0  0  0  0  0  0  0
   19.5380   65.5000   11.9390 C   0  0  0  0  0  0  0  0  0  0  0  0
   18.7450   64.6730   12.8400 C   0  0  0  0  0  0  0  0  0  0  0  0
   18.1170   64.0090   13.5500 N   0  0  0  0  0  0  0  0  0  0  0  0
   21.9500   67.4770    9.2470 N   0  0  0  0  0  0  0  0  0  0  0  0
   22.6340   68.6240    9.2550 C   0  0  0  0  0  0  0  0  0  0  0  0
   22.6400   69.4300   10.1840 O   0  0  0  0  0  0  0  0  0  0  0  0
   23.5250   68.8740    8.0440 C   0  0  0  0  0  0  0  0  0  0  0  0
   22.7870   68.8210    6.7070 C   0  0  0  0  0  0  0  0  0  0  0  0
   22.5030   67.5910    6.0890 C   0  0  0  0  0  0  0  0  0  0  0  0
   22.8700   66.4390    6.7600 O   0  0  0  0  0  0  0  0  0  0  0  0
   22.3610   65.1820    6.3170 C   0  0  0  0  0  0  0  0  0  0  0  0
   21.8710   67.5920    4.8380 C   0  0  0  0  0  0  0  0  0  0  0  0
   21.4930   68.7890    4.2310 C   0  0  0  0  0  0  0  0  0  0  0  0
   21.7530   70.0010    4.8650 C   0  0  0  0  0  0  0  0  0  0  0  0
   22.4050   70.0190    6.0960 C   0  0  0  0  0  0  0  0  0  0  0  0
   20.3180   61.1270    8.2990 H   0  0  0  0  0  0  0  0  0  0  0  0
   18.8180   61.5840    9.1410 H   0  0  0  0  0  0  0  0  0  0  0  0
   20.2280   61.0260   10.0730 H   0  0  0  0  0  0  0  0  0  0  0  0
   20.0860   63.6020    8.4330 H   0  0  0  0  0  0  0  0  0  0  0  0
   21.4950   63.0430    9.3660 H   0  0  0  0  0  0  0  0  0  0  0  0
   20.7950   68.6260   11.4730 H   0  0  0  0  0  0  0  0  0  0  0  0
   18.7690   67.0970   13.9790 H   0  0  0  0  0  0  0  0  0  0  0  0
   19.5710   68.5390   13.3970 H   0  0  0  0  0  0  0  0  0  0  0  0
   22.0630   66.9240    8.4100 H   0  0  0  0  0  0  0  0  0  0  0  0
   24.3080   68.1150    8.0330 H   0  0  0  0  0  0  0  0  0  0  0  0
   23.9770   69.8600    8.1470 H   0  0  0  0  0  0  0  0  0  0  0  0
   22.7500   64.3880    6.9550 H   0  0  0  0  0  0  0  0  0  0  0  0
   22.6730   65.0070    5.2880 H   0  0  0  0  0  0  0  0  0  0  0  0
   21.2730   65.1920    6.3710 H   0  0  0  0  0  0  0  0  0  0  0  0
   21.6750   66.6550    4.3380 H   0  0  0  0  0  0  0  0  0  0  0  0
   20.9980   68.7760    3.2710 H   0  0  0  0  0  0  0  0  0  0  0  0
   21.4500   70.9290    4.4020 H   0  0  0  0  0  0  0  0  0  0  0  0
   22.6150   70.9610    6.5790 H   0  0  0  0  0  0  0  0  0  0  0  0
  1  2  1  0  0  0  0
  1 25  1  0  0  0  0
  1 26  1  0  0  0  0
  1 27  1  0  0  0  0
  2  3  1  0  0  0  0
  2 28  1  0  0  0  0
  2 29  1  0  0  0  0
  3  4  1  0  0  0  0
  4  5  1  0  0  0  0
  4 10  2  0  0  0  0
  5  6  2  0  0  0  0
  6  7  1  0  0  0  0
  6 13  1  0  0  0  0
  7  8  2  0  0  0  0
  7 30  1  0  0  0  0
  8  9  1  0  0  0  0
  8 10  1  0  0  0  0
  9 31  1  0  0  0  0
  9 32  1  0  0  0  0
 10 11  1  0  0  0  0
 11 12  3  0  0  0  0
 13 14  1  0  0  0  0
 13 33  1  0  0  0  0
 14 15  2  0  0  0  0
 14 16  1  0  0  0  0
 16 17  1  0  0  0  0
 16 34  1  0  0  0  0
 16 35  1  0  0  0  0
 17 18  1  0  0  0  0
 17 24  2  0  0  0  0
 18 19  1  0  0  0  0
 18 21  2  0  0  0  0
 19 20  1  0  0  0  0
 20 36  1  0  0  0  0
 20 37  1  0  0  0  0
 20 38  1  0  0  0  0
 21 22  1  0  0  0  0
 21 39  1  0  0  0  0
 22 23  2  0  0  0  0
 22 40  1  0  0  0  0
 23 24  1  0  0  0  0
 23 41  1  0  0  0  0
 24 42  1  0  0  0  0
M  END
$$$$
jnk1_abbott_16_6m
  MOE2024           3D
jnk1_abbott_16_6m
 42 43  0  0  0  0  0  0  0  0999 V2000
   21.2540   62.7520    8.8630 C   0  0  0  0  0  0  0  0  0  0  0  0
   19.8260   63.3120    8.8390 C   0  0  0  0  0  0  0  0  0  0  0  0
   19.4360   63.7800   10.1330 O   0  0  0  0  0  0  0  0  0  0  0  0
   19.8680   65.0130   10.5940 C   0  0  0  0  0  0  0  0  0  0  0  0
   20.6250   65.7620    9.7510 N   0  0  0  0  0  0  0  0  0  0  0  0
   21.1000   66.9340   10.1890 C   0  0  0  0  0  0  0  0  0  0  0  0
   20.8250   67.4450   11.4450 C   0  0  0  0  0  0  0  0  0  0  0  0
   20.0390   66.6930   12.2980 C   0  0  0  0  0  0  0  0  0  0  0  0
   19.8130   67.2570   13.5450 N   0  0  0  0  0  0  0  0  0  0  0  0
   19.5400   65.4450   11.8840 C   0  0  0  0  0  0  0  0  0  0  0  0
   18.7160   64.5940   12.7360 C   0  0  0  0  0  0  0  0  0  0  0  0
   18.0600   63.9130   13.4050 N   0  0  0  0  0  0  0  0  0  0  0  0
   21.8430   67.5560    9.2150 N   0  0  0  0  0  0  0  0  0  0  0  0
   22.8370   68.4410    9.3290 C   0  0  0  0  0  0  0  0  0  0  0  0
   23.2710   68.8230   10.4130 O   0  0  0  0  0  0  0  0  0  0  0  0
   23.4680   68.9900    8.0390 C   0  0  0  0  0  0  0  0  0  0  0  0
   22.9190   68.3850    6.7470 C   0  0  0  0  0  0  0  0  0  0  0  0
   21.9910   69.0900    5.9720 C   0  0  0  0  0  0  0  0  0  0  0  0
   21.5300   68.5840    4.7600 C   0  0  0  0  0  0  0  0  0  0  0  0
   20.6540   69.3830    4.0580 O   0  0  0  0  0  0  0  0  0  0  0  0
   20.1280   68.9070    2.8240 C   0  0  0  0  0  0  0  0  0  0  0  0
   21.9900   67.3290    4.3330 C   0  0  0  0  0  0  0  0  0  0  0  0
   22.8980   66.6060    5.1100 C   0  0  0  0  0  0  0  0  0  0  0  0
   23.3630   67.1350    6.3130 C   0  0  0  0  0  0  0  0  0  0  0  0
   21.5250   62.4030    7.8670 H   0  0  0  0  0  0  0  0  0  0  0  0
   21.3070   61.9200    9.5670 H   0  0  0  0  0  0  0  0  0  0  0  0
   21.9460   63.5350    9.1740 H   0  0  0  0  0  0  0  0  0  0  0  0
   19.1400   62.5250    8.5230 H   0  0  0  0  0  0  0  0  0  0  0  0
   19.7790   64.1400    8.1310 H   0  0  0  0  0  0  0  0  0  0  0  0
   21.2130   68.4060   11.7510 H   0  0  0  0  0  0  0  0  0  0  0  0
   19.2550   66.7650   14.2280 H   0  0  0  0  0  0  0  0  0  0  0  0
   20.2060   68.1600   13.7700 H   0  0  0  0  0  0  0  0  0  0  0  0
   21.6000   67.3060    8.2670 H   0  0  0  0  0  0  0  0  0  0  0  0
   24.5390   68.7940    8.0760 H   0  0  0  0  0  0  0  0  0  0  0  0
   23.2960   70.0660    8.0090 H   0  0  0  0  0  0  0  0  0  0  0  0
   21.6250   70.0440    6.3210 H   0  0  0  0  0  0  0  0  0  0  0  0
   19.4570   69.6560    2.4030 H   0  0  0  0  0  0  0  0  0  0  0  0
   19.5780   67.9820    2.9970 H   0  0  0  0  0  0  0  0  0  0  0  0
   20.9460   68.7190    2.1290 H   0  0  0  0  0  0  0  0  0  0  0  0
   21.6400   66.9200    3.3970 H   0  0  0  0  0  0  0  0  0  0  0  0
   23.2390   65.6360    4.7780 H   0  0  0  0  0  0  0  0  0  0  0  0
   24.0690   66.5770    6.9100 H   0  0  0  0  0  0  0  0  0  0  0  0
  1  2  1  0  0  0  0
  1 25  1  0  0  0  0
  1 26  1  0  0  0  0
  1 27  1  0  0  0  0
  2  3  1  0  0  0  0
  2 28  1  0  0  0  0
  2 29  1  0  0  0  0
  3  4  1  0  0  0  0
  4  5  1  0  0  0  0
  4 10  2  0  0  0  0
  5  6  2  0  0  0  0
  6  7  1  0  0  0  0
  6 13  1  0  0  0  0
  7  8  2  0  0  0  0
  7 30  1  0  0  0  0
  8  9  1  0  0  0  0
  8 10  1  0  0  0  0
  9 31  1  0  0  0  0
  9 32  1  0  0  0  0
 10 11  1  0  0  0  0
 11 12  3  0  0  0  0
 13 14  1  0  0  0  0
 13 33  1  0  0  0  0
 14 15  2  0  0  0  0
 14 16  1  0  0  0  0
 16 17  1  0  0  0  0
 16 34  1  0  0  0  0
 16 35  1  0  0  0  0
 17 18  1  0  0  0  0
 17 24  2  0  0  0  0
 18 19  2  0  0  0  0
 18 36  1  0  0  0  0
 19 20  1  0  0  0  0
 19 22  1  0  0  0  0
 20 21  1  0  0  0  0
 21 37  1  0  0  0  0
 21 38  1  0  0  0  0
 21 39  1  0  0  0  0
 22 23  2  0  0  0  0
 22 40  1  0  0  0  0
 23 24  1  0  0  0  0
 23 41  1  0  0  0  0
 24 42  1  0  0  0  0
M  END
$$$$
jnk1_abbott_17_6n
  MOE2024           3D
jnk1_abbott_17_6n
 42 43  0  0  0  0  0  0  0  0999 V2000
   20.2110   61.3980    9.5350 C   0  0  0  0  0  0  0  0  0  0  0  0
   20.6040   62.8780    9.5500 C   0  0  0  0  0  0  0  0  0  0  0  0
   19.9670   63.4880   10.6710 O   0  0  0  0  0  0  0  0  0  0  0  0
   20.1170   64.8470   10.8860 C   0  0  0  0  0  0  0  0  0  0  0  0
   20.8830   65.5400   10.0000 N   0  0  0  0  0  0  0  0  0  0  0  0
   21.0680   66.8500   10.2080 C   0  0  0  0  0  0  0  0  0  0  0  0
   20.4910   67.5420   11.2620 C   0  0  0  0  0  0  0  0  0  0  0  0
   19.7070   66.8390   12.1570 C   0  0  0  0  0  0  0  0  0  0  0  0
   19.1720   67.5890   13.1960 N   0  0  0  0  0  0  0  0  0  0  0  0
   19.5050   65.4590   11.9860 C   0  0  0  0  0  0  0  0  0  0  0  0
   18.7050   64.6530   12.9010 C   0  0  0  0  0  0  0  0  0  0  0  0
   18.0700   64.0060   13.6220 N   0  0  0  0  0  0  0  0  0  0  0  0
   21.8530   67.4090    9.2220 N   0  0  0  0  0  0  0  0  0  0  0  0
   22.5860   68.5270    9.2410 C   0  0  0  0  0  0  0  0  0  0  0  0
   22.7270   69.2240   10.2430 O   0  0  0  0  0  0  0  0  0  0  0  0
   23.2900   68.9520    7.9420 C   0  0  0  0  0  0  0  0  0  0  0  0
   23.0530   68.0300    6.7470 C   0  0  0  0  0  0  0  0  0  0  0  0
   22.2670   68.4610    5.6750 C   0  0  0  0  0  0  0  0  0  0  0  0
   22.0270   67.6050    4.6000 C   0  0  0  0  0  0  0  0  0  0  0  0
   22.5630   66.3180    4.5730 C   0  0  0  0  0  0  0  0  0  0  0  0
   23.3600   65.8940    5.6480 C   0  0  0  0  0  0  0  0  0  0  0  0
   23.6000   66.7430    6.7270 C   0  0  0  0  0  0  0  0  0  0  0  0
   22.2560   65.5470    3.4720 O   0  0  0  0  0  0  0  0  0  0  0  0
   22.7830   64.2240    3.3890 C   0  0  0  0  0  0  0  0  0  0  0  0
   20.6850   60.9050    8.6870 H   0  0  0  0  0  0  0  0  0  0  0  0
   19.1280   61.3110    9.4480 H   0  0  0  0  0  0  0  0  0  0  0  0
   20.5400   60.9260   10.4610 H   0  0  0  0  0  0  0  0  0  0  0  0
   20.2740   63.3580    8.6290 H   0  0  0  0  0  0  0  0  0  0  0  0
   21.6860   62.9730    9.6420 H   0  0  0  0  0  0  0  0  0  0  0  0
   20.6490   68.6040   11.3790 H   0  0  0  0  0  0  0  0  0  0  0  0
   18.5930   67.1450   13.8940 H   0  0  0  0  0  0  0  0  0  0  0  0
   19.3620   68.5800   13.2530 H   0  0  0  0  0  0  0  0  0  0  0  0
   21.8780   66.8950    8.3530 H   0  0  0  0  0  0  0  0  0  0  0  0
   24.3630   68.9870    8.1350 H   0  0  0  0  0  0  0  0  0  0  0  0
   22.9370   69.9490    7.6760 H   0  0  0  0  0  0  0  0  0  0  0  0
   21.8450   69.4550    5.6790 H   0  0  0  0  0  0  0  0  0  0  0  0
   21.4160   67.9450    3.7760 H   0  0  0  0  0  0  0  0  0  0  0  0
   23.7890   64.9030    5.6390 H   0  0  0  0  0  0  0  0  0  0  0  0
   24.2110   66.4050    7.5500 H   0  0  0  0  0  0  0  0  0  0  0  0
   22.4460   63.7570    2.4640 H   0  0  0  0  0  0  0  0  0  0  0  0
   22.4330   63.6400    4.2400 H   0  0  0  0  0  0  0  0  0  0  0  0
   23.8720   64.2660    3.4000 H   0  0  0  0  0  0  0  0  0  0  0  0
  1  2  1  0  0  0  0
  1 25  1  0  0  0  0
  1 26  1  0  0  0  0
  1 27  1  0  0  0  0
  2  3  1  0  0  0  0
  2 28  1  0  0  0  0
  2 29  1  0  0  0  0
  3  4  1  0  0  0  0
  4  5  1  0  0  0  0
  4 10  2  0  0  0  0
  5  6  2  0  0  0  0
  6  7  1  0  0  0  0
  6 13  1  0  0  0  0
  7  8  2  0  0  0  0
  7 30  1  0  0  0  0
  8  9  1  0  0  0  0
  8 10  1  0  0  0  0
  9 31  1  0  0  0  0
  9 32  1  0  0  0  0
 10 11  1  0  0  0  0
 11 12  3  0  0  0  0
 13 14  1  0  0  0  0
 13 33  1  0  0  0  0
 14 15  2  0  0  0  0
 14 16  1  0  0  0  0
 16 17  1  0  0  0  0
 16 34  1  0  0  0  0
 16 35  1  0  0  0  0
 17 18  1  0  0  0  0
 17 22  2  0  0  0  0
 18 19  2  0  0  0  0
 18 36  1  0  0  0  0
 19 20  1  0  0  0  0
 19 37  1  0  0  0  0
 20 21  2  0  0  0  0
 20 23  1  0  0  0  0
 21 22  1  0  0  0  0
 21 38  1  0  0  0  0
 22 39  1  0  0  0  0
 23 24  1  0  0  0  0
 24 40  1  0  0  0  0
 24 41  1  0  0  0  0
 24 42  1  0  0  0  0
M  END
$$$$
jnk1_abbott_18_6o
  MOE2024           3D
jnk1_abbott_18_6o
 46 47  0  0  0  0  0  0  0  0999 V2000
   19.8240   61.6390    9.1440 C   0  0  0  0  0  0  0  0  0  0  0  0
   20.3710   63.0620    9.2730 C   0  0  0  0  0  0  0  0  0  0  0  0
   19.7950   63.6440   10.4390 O   0  0  0  0  0  0  0  0  0  0  0  0
   20.0560   64.9700   10.7430 C   0  0  0  0  0  0  0  0  0  0  0  0
   20.8580   65.6620    9.8880 N   0  0  0  0  0  0  0  0  0  0  0  0
   21.1440   66.9410   10.1780 C   0  0  0  0  0  0  0  0  0  0  0  0
   20.6270   67.6020   11.2840 C   0  0  0  0  0  0  0  0  0  0  0  0
   19.8160   66.8960   12.1530 C   0  0  0  0  0  0  0  0  0  0  0  0
   19.3580   67.6040   13.2570 N   0  0  0  0  0  0  0  0  0  0  0  0
   19.5180   65.5460   11.9000 C   0  0  0  0  0  0  0  0  0  0  0  0
   18.6970   64.7330   12.7890 C   0  0  0  0  0  0  0  0  0  0  0  0
   18.0490   64.0790   13.4890 N   0  0  0  0  0  0  0  0  0  0  0  0
   21.9980   67.4780    9.2370 N   0  0  0  0  0  0  0  0  0  0  0  0
   22.6980   68.6160    9.2490 C   0  0  0  0  0  0  0  0  0  0  0  0
   22.7140   69.4170   10.1810 O   0  0  0  0  0  0  0  0  0  0  0  0
   23.5870   68.8630    8.0360 C   0  0  0  0  0  0  0  0  0  0  0  0
   22.8360   68.8090    6.7080 C   0  0  0  0  0  0  0  0  0  0  0  0
   22.5770   67.5820    6.0780 C   0  0  0  0  0  0  0  0  0  0  0  0
   22.9860   66.4300    6.7260 O   0  0  0  0  0  0  0  0  0  0  0  0
   22.4770   65.1710    6.2890 C   0  0  0  0  0  0  0  0  0  0  0  0
   21.9160   67.5840    4.8430 C   0  0  0  0  0  0  0  0  0  0  0  0
   21.4630   68.7780    4.2800 C   0  0  0  0  0  0  0  0  0  0  0  0
   21.6780   69.9990    4.9340 C   0  0  0  0  0  0  0  0  0  0  0  0
   22.3900   70.0010    6.1290 C   0  0  0  0  0  0  0  0  0  0  0  0
   21.2290   71.2220    4.4800 O   0  0  0  0  0  0  0  0  0  0  0  0
   20.3360   71.2610    3.3730 C   0  0  0  0  0  0  0  0  0  0  0  0
   20.2480   61.1660    8.2580 H   0  0  0  0  0  0  0  0  0  0  0  0
   18.7380   61.6730    9.0530 H   0  0  0  0  0  0  0  0  0  0  0  0
   20.0960   61.0630   10.0280 H   0  0  0  0  0  0  0  0  0  0  0  0
   20.0980   63.6460    8.3940 H   0  0  0  0  0  0  0  0  0  0  0  0
   21.4560   63.0350    9.3690 H   0  0  0  0  0  0  0  0  0  0  0  0
   20.8540   68.6430   11.4610 H   0  0  0  0  0  0  0  0  0  0  0  0
   18.7710   67.1480   13.9410 H   0  0  0  0  0  0  0  0  0  0  0  0
   19.6130   68.5740   13.3760 H   0  0  0  0  0  0  0  0  0  0  0  0
   22.1120   66.9210    8.4030 H   0  0  0  0  0  0  0  0  0  0  0  0
   24.3690   68.1040    8.0210 H   0  0  0  0  0  0  0  0  0  0  0  0
   24.0390   69.8500    8.1360 H   0  0  0  0  0  0  0  0  0  0  0  0
   22.8990   64.3760    6.9030 H   0  0  0  0  0  0  0  0  0  0  0  0
   22.7510   65.0100    5.2470 H   0  0  0  0  0  0  0  0  0  0  0  0
   21.3910   65.1660    6.3850 H   0  0  0  0  0  0  0  0  0  0  0  0
   21.7550   66.6520    4.3200 H   0  0  0  0  0  0  0  0  0  0  0  0
   20.9420   68.7610    3.3340 H   0  0  0  0  0  0  0  0  0  0  0  0
   22.6020   70.9400    6.6190 H   0  0  0  0  0  0  0  0  0  0  0  0
   20.0830   72.2960    3.1460 H   0  0  0  0  0  0  0  0  0  0  0  0
   19.4280   70.7100    3.6180 H   0  0  0  0  0  0  0  0  0  0  0  0
   20.8140   70.8060    2.5050 H   0  0  0  0  0  0  0  0  0  0  0  0
  1  2  1  0  0  0  0
  1 27  1  0  0  0  0
  1 28  1  0  0  0  0
  1 29  1  0  0  0  0
  2  3  1  0  0  0  0
  2 30  1  0  0  0  0
  2 31  1  0  0  0  0
  3  4  1  0  0  0  0
  4  5  1  0  0  0  0
  4 10  2  0  0  0  0
  5  6  2  0  0  0  0
  6  7  1  0  0  0  0
  6 13  1  0  0  0  0
  7  8  2  0  0  0  0
  7 32  1  0  0  0  0
  8  9  1  0  0  0  0
  8 10  1  0  0  0  0
  9 33  1  0  0  0  0
  9 34  1  0  0  0  0
 10 11  1  0  0  0  0
 11 12  3  0  0  0  0
 13 14  1  0  0  0  0
 13 35  1  0  0  0  0
 14 15  2  0  0  0  0
 14 16  1  0  0  0  0
 16 17  1  0  0  0  0
 16 36  1  0  0  0  0
 16 37  1  0  0  0  0
 17 18  1  0  0  0  0
 17 24  2  0  0  0  0
 18 19  1  0  0  0  0
 18 21  2  0  0  0  0
 19 20  1  0  0  0  0
 20 38  1  0  0  0  0
 20 39  1  0  0  0  0
 20 40  1  0  0  0  0
 21 22  1  0  0  0  0
 21 41  1  0  0  0  0
 22 23  2  0  0  0  0
 22 42  1  0  0  0  0
 23 24  1  0  0  0  0
 23 25  1  0  0  0  0
 24 43  1  0  0  0  0
 25 26  1  0  0  0  0
 26 44  1  0  0  0  0
 26 45  1  0  0  0  0
 26 46  1  0  0  0  0
M  END
$$$$
jnk1_abbott_19_6p
  MOE2024           3D
jnk1_abbott_19_6p
 44 45  0  0  0  0  0  0  0  0999 V2000
   20.0570   61.5800    9.1920 C   0  0  0  0  0  0  0  0  0  0  0  0
   20.4790   63.0480    9.2840 C   0  0  0  0  0  0  0  0  0  0  0  0
   19.8890   63.6000   10.4590 O   0  0  0  0  0  0  0  0  0  0  0  0
   20.0630   64.9420   10.7460 C   0  0  0  0  0  0  0  0  0  0  0  0
   20.7980   65.6790    9.8700 N   0  0  0  0  0  0  0  0  0  0  0  0
   21.0070   66.9740   10.1470 C   0  0  0  0  0  0  0  0  0  0  0  0
   20.4850   67.6100   11.2620 C   0  0  0  0  0  0  0  0  0  0  0  0
   19.7380   66.8580   12.1520 C   0  0  0  0  0  0  0  0  0  0  0  0
   19.2690   67.5430   13.2670 N   0  0  0  0  0  0  0  0  0  0  0  0
   19.5110   65.4940   11.9080 C   0  0  0  0  0  0  0  0  0  0  0  0
   18.7520   64.6350   12.8100 C   0  0  0  0  0  0  0  0  0  0  0  0
   18.1510   63.9450   13.5190 N   0  0  0  0  0  0  0  0  0  0  0  0
   21.7990   67.5480    9.1790 N   0  0  0  0  0  0  0  0  0  0  0  0
   22.5660   68.6390    9.2250 C   0  0  0  0  0  0  0  0  0  0  0  0
   22.6270   69.4050   10.1850 O   0  0  0  0  0  0  0  0  0  0  0  0
   23.4860   68.8520    8.0240 C   0  0  0  0  0  0  0  0  0  0  0  0
   22.7700   68.7950    6.6750 C   0  0  0  0  0  0  0  0  0  0  0  0
   22.0530   69.8860    6.1430 C   0  0  0  0  0  0  0  0  0  0  0  0
   21.8950   71.2150    6.8710 C   0  0  0  0  0  0  0  0  0  0  0  0
   21.4190   69.7510    4.9050 C   0  0  0  0  0  0  0  0  0  0  0  0
   21.4990   68.5580    4.1900 C   0  0  0  0  0  0  0  0  0  0  0  0
   22.2070   67.4770    4.7120 C   0  0  0  0  0  0  0  0  0  0  0  0
   22.2820   66.1770    3.9350 C   0  0  0  0  0  0  0  0  0  0  0  0
   22.8340   67.6000    5.9510 C   0  0  0  0  0  0  0  0  0  0  0  0
   20.4940   61.1300    8.3010 H   0  0  0  0  0  0  0  0  0  0  0  0
   18.9700   61.5170    9.1340 H   0  0  0  0  0  0  0  0  0  0  0  0
   20.4040   61.0450   10.0770 H   0  0  0  0  0  0  0  0  0  0  0  0
   20.1310   63.5890    8.4050 H   0  0  0  0  0  0  0  0  0  0  0  0
   21.5650   63.1170    9.3470 H   0  0  0  0  0  0  0  0  0  0  0  0
   20.6570   68.6630   11.4310 H   0  0  0  0  0  0  0  0  0  0  0  0
   18.7260   67.0580   13.9670 H   0  0  0  0  0  0  0  0  0  0  0  0
   19.4700   68.5270   13.3780 H   0  0  0  0  0  0  0  0  0  0  0  0
   21.8000   67.0660    8.2910 H   0  0  0  0  0  0  0  0  0  0  0  0
   24.2530   68.0780    8.0380 H   0  0  0  0  0  0  0  0  0  0  0  0
   23.9560   69.8310    8.1220 H   0  0  0  0  0  0  0  0  0  0  0  0
   22.4380   71.1780    7.8160 H   0  0  0  0  0  0  0  0  0  0  0  0
   20.8390   71.3990    7.0670 H   0  0  0  0  0  0  0  0  0  0  0  0
   22.2960   72.0180    6.2530 H   0  0  0  0  0  0  0  0  0  0  0  0
   20.8590   70.5810    4.4980 H   0  0  0  0  0  0  0  0  0  0  0  0
   21.0130   68.4710    3.2290 H   0  0  0  0  0  0  0  0  0  0  0  0
   21.7330   66.2810    2.9990 H   0  0  0  0  0  0  0  0  0  0  0  0
   21.8420   65.3740    4.5270 H   0  0  0  0  0  0  0  0  0  0  0  0
   23.3240   65.9420    3.7210 H   0  0  0  0  0  0  0  0  0  0  0  0
   23.3770   66.7590    6.3590 H   0  0  0  0  0  0  0  0  0  0  0  0
  1  2  1  0  0  0  0
  1 25  1  0  0  0  0
  1 26  1  0  0  0  0
  1 27  1  0  0  0  0
  2  3  1  0  0  0  0
  2 28  1  0  0  0  0
  2 29  1  0  0  0  0
  3  4  1  0  0  0  0
  4  5  1  0  0  0  0
  4 10  2  0  0  0  0
  5  6  2  0  0  0  0
  6  7  1  0  0  0  0
  6 13  1  0  0  0  0
  7  8  2  0  0  0  0
  7 30  1  0  0  0  0
  8  9  1  0  0  0  0
  8 10  1  0  0  0  0
  9 31  1  0  0  0  0
  9 32  1  0  0  0  0
 10 11  1  0  0  0  0
 11 12  3  0  0  0  0
 13 14  1  0  0  0  0
 13 33  1  0  0  0  0
 14 15  2  0  0  0  0
 14 16  1  0  0  0  0
 16 17  1  0  0  0  0
 16 34  1  0  0  0  0
 16 35  1  0  0  0  0
 17 18  1  0  0  0  0
 17 24  2  0  0  0  0
 18 19  1  0  0  0  0
 18 20  2  0  0  0  0
 19 36  1  0  0  0  0
 19 37  1  0  0  0  0
 19 38  1  0  0  0  0
 20 21  1  0  0  0  0
 20 39  1  0  0  0  0
 21 22  2  0  0  0  0
 21 40  1  0  0  0  0
 22 23  1  0  0  0  0
 22 24  1  0  0  0  0
 23 41  1  0  0  0  0
 23 42  1  0  0  0  0
 23 43  1  0  0  0  0
 24 44  1  0  0  0  0
M  END
$$$$
jnk1_abbott_20_6q
  MOE2024           3D
jnk1_abbott_20_6q
 38 39  0  0  0  0  0  0  0  0999 V2000
   20.0170   61.4900    9.3610 C   0  0  0  0  0  0  0  0  0  0  0  0
   20.4900   62.9450    9.4260 C   0  0  0  0  0  0  0  0  0  0  0  0
   19.8860   63.5480   10.5680 O   0  0  0  0  0  0  0  0  0  0  0  0
   20.0910   64.8930   10.8230 C   0  0  0  0  0  0  0  0  0  0  0  0
   20.8760   65.5810    9.9500 N   0  0  0  0  0  0  0  0  0  0  0  0
   21.1150   66.8770   10.1930 C   0  0  0  0  0  0  0  0  0  0  0  0
   20.5720   67.5630   11.2690 C   0  0  0  0  0  0  0  0  0  0  0  0
   19.7750   66.8610   12.1580 C   0  0  0  0  0  0  0  0  0  0  0  0
   19.2850   67.5900   13.2360 N   0  0  0  0  0  0  0  0  0  0  0  0
   19.5210   65.4950   11.9500 C   0  0  0  0  0  0  0  0  0  0  0  0
   18.7170   64.6850   12.8580 C   0  0  0  0  0  0  0  0  0  0  0  0
   18.0810   64.0320   13.5720 N   0  0  0  0  0  0  0  0  0  0  0  0
   21.9630   67.3850    9.2310 N   0  0  0  0  0  0  0  0  0  0  0  0
   22.6340   68.5380    9.1860 C   0  0  0  0  0  0  0  0  0  0  0  0
   22.5840   69.4100   10.0490 O   0  0  0  0  0  0  0  0  0  0  0  0
   23.5315   68.7203    7.9731 C   0  0  0  0  0  0  0  0  0  0  0  0
   22.7361   68.3614    6.7154 C   0  0  0  0  0  0  0  0  0  0  0  0
   21.7725   69.2182    6.1569 C   0  0  0  0  0  0  0  0  0  0  0  0
   21.3709   70.9244    6.8839 Br  0  0  0  0  0  0  0  0  0  0  0  0
   21.0667   68.8217    5.0217 C   0  0  0  0  0  0  0  0  0  0  0  0
   21.3073   67.5832    4.4368 C   0  0  0  0  0  0  0  0  0  0  0  0
   22.2610   66.7315    4.9827 C   0  0  0  0  0  0  0  0  0  0  0  0
   22.5895   65.0435    4.1955 Br  0  0  0  0  0  0  0  0  0  0  0  0
   22.9728   67.1220    6.1137 C   0  0  0  0  0  0  0  0  0  0  0  0
   20.4640   61.0020    8.4950 H   0  0  0  0  0  0  0  0  0  0  0  0
   18.9310   61.4650    9.2720 H   0  0  0  0  0  0  0  0  0  0  0  0
   20.3200   60.9690   10.2690 H   0  0  0  0  0  0  0  0  0  0  0  0
   20.1860   63.4740    8.5230 H   0  0  0  0  0  0  0  0  0  0  0  0
   21.5750   62.9780    9.5200 H   0  0  0  0  0  0  0  0  0  0  0  0
   20.7660   68.6160   11.4110 H   0  0  0  0  0  0  0  0  0  0  0  0
   18.7080   67.1390   13.9310 H   0  0  0  0  0  0  0  0  0  0  0  0
   19.5060   68.5720   13.3240 H   0  0  0  0  0  0  0  0  0  0  0  0
   22.0980   66.7860    8.4290 H   0  0  0  0  0  0  0  0  0  0  0  0
   24.3649   68.0409    8.0789 H   0  0  0  0  0  0  0  0  0  0  0  0
   23.8664   69.7472    7.9312 H   0  0  0  0  0  0  0  0  0  0  0  0
   20.3396   69.4690    4.6016 H   0  0  0  0  0  0  0  0  0  0  0  0
   20.7649   67.2880    3.5749 H   0  0  0  0  0  0  0  0  0  0  0  0
   23.7018   66.4629    6.5122 H   0  0  0  0  0  0  0  0  0  0  0  0
  1  2  1  0  0  0  0
  1 25  1  0  0  0  0
  1 26  1  0  0  0  0
  1 27  1  0  0  0  0
  2  3  1  0  0  0  0
  2 28  1  0  0  0  0
  2 29  1  0  0  0  0
  3  4  1  0  0  0  0
  4  5  1  0  0  0  0
  4 10  2  0  0  0  0
  5  6  2  0  0  0  0
  6  7  1  0  0  0  0
  6 13  1  0  0  0  0
  7  8  2  0  0  0  0
  7 30  1  0  0  0  0
  8  9  1  0  0  0  0
  8 10  1  0  0  0  0
  9 31  1  0  0  0  0
  9 32  1  0  0  0  0
 10 11  1  0  0  0  0
 11 12  3  0  0  0  0
 13 14  1  0  0  0  0
 13 33  1  0  0  0  0
 14 15  2  0  0  0  0
 14 16  1  0  0  0  0
 16 17  1  0  0  0  0
 16 34  1  0  0  0  0
 16 35  1  0  0  0  0
 17 18  1  0  0  0  0
 17 24  2  0  0  0  0
 18 19  1  0  0  0  0
 18 20  2  0  0  0  0
 20 21  1  0  0  0  0
 20 36  1  0  0  0  0
 21 22  2  0  0  0  0
 21 37  1  0  0  0  0
 22 23  1  0  0  0  0
 22 24  1  0  0  0  0
 24 38  1  0  0  0  0
M  END
$$$$
jnk1_abbott_21_6r
  MOE2024           3D
jnk1_abbott_21_6r
 53 54  0  0  0  0  0  0  0  0999 V2000
   19.8870   61.5870    9.2130 C   0  0  0  0  0  0  0  0  0  0  0  0
   20.4220   63.0160    9.3360 C   0  0  0  0  0  0  0  0  0  0  0  0
   19.8260   63.6050   10.4880 O   0  0  0  0  0  0  0  0  0  0  0  0
   20.0670   64.9360   10.7800 C   0  0  0  0  0  0  0  0  0  0  0  0
   20.8560   65.6330    9.9170 N   0  0  0  0  0  0  0  0  0  0  0  0
   21.1200   66.9200   10.1920 C   0  0  0  0  0  0  0  0  0  0  0  0
   20.5970   67.5820   11.2950 C   0  0  0  0  0  0  0  0  0  0  0  0
   19.8000   66.8700   12.1730 C   0  0  0  0  0  0  0  0  0  0  0  0
   19.3350   67.5810   13.2730 N   0  0  0  0  0  0  0  0  0  0  0  0
   19.5220   65.5150   11.9320 C   0  0  0  0  0  0  0  0  0  0  0  0
   18.7160   64.6970   12.8300 C   0  0  0  0  0  0  0  0  0  0  0  0
   18.0780   64.0400   13.5370 N   0  0  0  0  0  0  0  0  0  0  0  0
   21.9650   67.4620    9.2440 N   0  0  0  0  0  0  0  0  0  0  0  0
   22.6550   68.6050    9.2490 C   0  0  0  0  0  0  0  0  0  0  0  0
   22.6560   69.4160   10.1740 O   0  0  0  0  0  0  0  0  0  0  0  0
   23.5570   68.8440    8.0440 C   0  0  0  0  0  0  0  0  0  0  0  0
   22.8210   68.8230    6.7060 C   0  0  0  0  0  0  0  0  0  0  0  0
   22.5210   67.6080    6.0750 C   0  0  0  0  0  0  0  0  0  0  0  0
   22.8790   66.4420    6.7310 O   0  0  0  0  0  0  0  0  0  0  0  0
   22.4060   65.1880    6.2420 C   0  0  0  0  0  0  0  0  0  0  0  0
   21.8790   67.6340    4.8320 C   0  0  0  0  0  0  0  0  0  0  0  0
   21.4980   68.8460    4.2370 C   0  0  0  0  0  0  0  0  0  0  0  0
   21.7830   70.0590    4.8830 C   0  0  0  0  0  0  0  0  0  0  0  0
   22.4510   70.0330    6.1150 C   0  0  0  0  0  0  0  0  0  0  0  0
   21.3670   71.2310    4.2710 O   0  0  0  0  0  0  0  0  0  0  0  0
   21.9960   72.4610    4.6260 C   0  0  0  0  0  0  0  0  0  0  0  0
   20.8130   68.9320    3.0030 N   0  0  0  0  0  0  0  0  0  0  0  0
   20.4250   67.9890    2.1290 C   0  0  0  0  0  0  0  0  0  0  0  0
   20.6610   66.7900    2.2350 O   0  0  0  0  0  0  0  0  0  0  0  0
   19.6110   68.4660    0.9380 C   0  0  0  0  0  0  0  0  0  0  0  0
   20.3260   61.1080    8.3380 H   0  0  0  0  0  0  0  0  0  0  0  0
   18.8020   61.6140    9.1070 H   0  0  0  0  0  0  0  0  0  0  0  0
   20.1500   61.0220   10.1080 H   0  0  0  0  0  0  0  0  0  0  0  0
   20.1580   63.5890    8.4470 H   0  0  0  0  0  0  0  0  0  0  0  0
   21.5060   62.9970    9.4480 H   0  0  0  0  0  0  0  0  0  0  0  0
   20.8080   68.6280   11.4630 H   0  0  0  0  0  0  0  0  0  0  0  0
   18.7570   67.1230   13.9630 H   0  0  0  0  0  0  0  0  0  0  0  0
   19.5750   68.5560   13.3820 H   0  0  0  0  0  0  0  0  0  0  0  0
   22.0790   66.9030    8.4110 H   0  0  0  0  0  0  0  0  0  0  0  0
   24.3210   68.0680    8.0280 H   0  0  0  0  0  0  0  0  0  0  0  0
   24.0320   69.8190    8.1590 H   0  0  0  0  0  0  0  0  0  0  0  0
   22.7830   64.3850    6.8750 H   0  0  0  0  0  0  0  0  0  0  0  0
   22.7580   65.0400    5.2210 H   0  0  0  0  0  0  0  0  0  0  0  0
   21.3160   65.1800    6.2550 H   0  0  0  0  0  0  0  0  0  0  0  0
   21.6720   66.7050    4.3220 H   0  0  0  0  0  0  0  0  0  0  0  0
   22.6830   70.9620    6.6140 H   0  0  0  0  0  0  0  0  0  0  0  0
   21.5510   73.2760    4.0550 H   0  0  0  0  0  0  0  0  0  0  0  0
   23.0610   72.4020    4.4040 H   0  0  0  0  0  0  0  0  0  0  0  0
   21.8560   72.6460    5.6910 H   0  0  0  0  0  0  0  0  0  0  0  0
   20.5720   69.8740    2.7290 H   0  0  0  0  0  0  0  0  0  0  0  0
   19.4910   69.5480    0.9910 H   0  0  0  0  0  0  0  0  0  0  0  0
   18.6310   67.9900    0.9530 H   0  0  0  0  0  0  0  0  0  0  0  0
   20.1290   68.2020    0.0160 H   0  0  0  0  0  0  0  0  0  0  0  0
  1  2  1  0  0  0  0
  1 31  1  0  0  0  0
  1 32  1  0  0  0  0
  1 33  1  0  0  0  0
  2  3  1  0  0  0  0
  2 34  1  0  0  0  0
  2 35  1  0  0  0  0
  3  4  1  0  0  0  0
  4  5  1  0  0  0  0
  4 10  2  0  0  0  0
  5  6  2  0  0  0  0
  6  7  1  0  0  0  0
  6 13  1  0  0  0  0
  7  8  2  0  0  0  0
  7 36  1  0  0  0  0
  8  9  1  0  0  0  0
  8 10  1  0  0  0  0
  9 37  1  0  0  0  0
  9 38  1  0  0  0  0
 10 11  1  0  0  0  0
 11 12  3  0  0  0  0
 13 14  1  0  0  0  0
 13 39  1  0  0  0  0
 14 15  2  0  0  0  0
 14 16  1  0  0  0  0
 16 17  1  0  0  0  0
 16 40  1  0  0  0  0
 16 41  1  0  0  0  0
 17 18  1  0  0  0  0
 17 24  2  0  0  0  0
 18 19  1  0  0  0  0
 18 21  2  0  0  0  0
 19 20  1  0  0  0  0
 20 42  1  0  0  0  0
 20 43  1  0  0  0  0
 20 44  1  0  0  0  0
 21 22  1  0  0  0  0
 21 45  1  0  0  0  0
 22 23  2  0  0  0  0
 22 27  1  0  0  0  0
 23 24  1  0  0  0  0
 23 25  1  0  0  0  0
 24 46  1  0  0  0  0
 25 26  1  0  0  0  0
 26 47  1  0  0  0  0
 26 48  1  0  0  0  0
 26 49  1  0  0  0  0
 27 28  1  0  0  0  0
 27 50  1  0  0  0  0
 28 29  2  0  0  0  0
 28 30  1  0  0  0  0
 30 51  1  0  0  0  0
 30 52  1  0  0  0  0
 30 53  1  0  0  0  0
M  END
$$$$
jnk1_abbott_22_6s
  MOE2024           3D
jnk1_abbott_22_6s
 52 53  0  0  0  0  0  0  0  0999 V2000
   19.9570   61.5320    9.3180 C   0  0  0  0  0  0  0  0  0  0  0  0
   20.4430   62.9810    9.3970 C   0  0  0  0  0  0  0  0  0  0  0  0
   19.8660   63.5710   10.5580 O   0  0  0  0  0  0  0  0  0  0  0  0
   20.0810   64.9120   10.8240 C   0  0  0  0  0  0  0  0  0  0  0  0
   20.8630   65.6060    9.9510 N   0  0  0  0  0  0  0  0  0  0  0  0
   21.1050   66.9010   10.2040 C   0  0  0  0  0  0  0  0  0  0  0  0
   20.5650   67.5760   11.2900 C   0  0  0  0  0  0  0  0  0  0  0  0
   19.7740   66.8680   12.1770 C   0  0  0  0  0  0  0  0  0  0  0  0
   19.2880   67.5930   13.2590 N   0  0  0  0  0  0  0  0  0  0  0  0
   19.5200   65.5050   11.9610 C   0  0  0  0  0  0  0  0  0  0  0  0
   18.7190   64.6920   12.8700 C   0  0  0  0  0  0  0  0  0  0  0  0
   18.0850   64.0390   13.5870 N   0  0  0  0  0  0  0  0  0  0  0  0
   21.9480   67.4360    9.2500 N   0  0  0  0  0  0  0  0  0  0  0  0
   22.6260   68.5860    9.2410 C   0  0  0  0  0  0  0  0  0  0  0  0
   22.6090   69.4150   10.1490 O   0  0  0  0  0  0  0  0  0  0  0  0
   23.5390   68.8140    8.0430 C   0  0  0  0  0  0  0  0  0  0  0  0
   22.8060   68.8200    6.7050 C   0  0  0  0  0  0  0  0  0  0  0  0
   22.4940   67.6160    6.0580 C   0  0  0  0  0  0  0  0  0  0  0  0
   22.8340   66.4390    6.7010 O   0  0  0  0  0  0  0  0  0  0  0  0
   22.4200   65.1870    6.1570 C   0  0  0  0  0  0  0  0  0  0  0  0
   21.8690   67.6670    4.8050 C   0  0  0  0  0  0  0  0  0  0  0  0
   21.5300   68.8950    4.2260 C   0  0  0  0  0  0  0  0  0  0  0  0
   20.7520   68.9080    2.6060 S   0  0  0  0  0  0  0  0  0  0  0  0
   20.4830   67.5180    2.2020 O   0  0  0  0  0  0  0  0  0  0  0  0
   19.6470   69.8810    2.6150 O   0  0  0  0  0  0  0  0  0  0  0  0
   22.0660   69.5560    1.4970 C   0  0  0  0  0  0  0  0  0  0  0  0
   21.8230   70.1010    4.8780 C   0  0  0  0  0  0  0  0  0  0  0  0
   22.4650   70.0450    6.1210 C   0  0  0  0  0  0  0  0  0  0  0  0
   21.4630   71.2850    4.2630 O   0  0  0  0  0  0  0  0  0  0  0  0
   22.0740   72.5070    4.6680 C   0  0  0  0  0  0  0  0  0  0  0  0
   20.3840   61.0520    8.4370 H   0  0  0  0  0  0  0  0  0  0  0  0
   18.8690   61.5160    9.2490 H   0  0  0  0  0  0  0  0  0  0  0  0
   20.2720   60.9940   10.2130 H   0  0  0  0  0  0  0  0  0  0  0  0
   20.1280   63.5260    8.5070 H   0  0  0  0  0  0  0  0  0  0  0  0
   21.5300   63.0040    9.4710 H   0  0  0  0  0  0  0  0  0  0  0  0
   20.7570   68.6280   11.4380 H   0  0  0  0  0  0  0  0  0  0  0  0
   18.7120   67.1390   13.9540 H   0  0  0  0  0  0  0  0  0  0  0  0
   19.5120   68.5740   13.3510 H   0  0  0  0  0  0  0  0  0  0  0  0
   22.0720   66.8640    8.4260 H   0  0  0  0  0  0  0  0  0  0  0  0
   24.2850   68.0180    8.0230 H   0  0  0  0  0  0  0  0  0  0  0  0
   24.0370   69.7750    8.1670 H   0  0  0  0  0  0  0  0  0  0  0  0
   22.7770   64.3780    6.7950 H   0  0  0  0  0  0  0  0  0  0  0  0
   22.8350   65.0710    5.1560 H   0  0  0  0  0  0  0  0  0  0  0  0
   21.3320   65.1560    6.1050 H   0  0  0  0  0  0  0  0  0  0  0  0
   21.6470   66.7500    4.2810 H   0  0  0  0  0  0  0  0  0  0  0  0
   22.8990   68.8530    1.4710 H   0  0  0  0  0  0  0  0  0  0  0  0
   22.4140   70.5190    1.8700 H   0  0  0  0  0  0  0  0  0  0  0  0
   21.6640   69.6790    0.4910 H   0  0  0  0  0  0  0  0  0  0  0  0
   22.7020   70.9630    6.6380 H   0  0  0  0  0  0  0  0  0  0  0  0
   21.6690   73.3290    4.0770 H   0  0  0  0  0  0  0  0  0  0  0  0
   23.1510   72.4440    4.5120 H   0  0  0  0  0  0  0  0  0  0  0  0
   21.8700   72.6830    5.7240 H   0  0  0  0  0  0  0  0  0  0  0  0
  1  2  1  0  0  0  0
  1 31  1  0  0  0  0
  1 32  1  0  0  0  0
  1 33  1  0  0  0  0
  2  3  1  0  0  0  0
  2 34  1  0  0  0  0
  2 35  1  0  0  0  0
  3  4  1  0  0  0  0
  4  5  1  0  0  0  0
  4 10  2  0  0  0  0
  5  6  2  0  0  0  0
  6  7  1  0  0  0  0
  6 13  1  0  0  0  0
  7  8  2  0  0  0  0
  7 36  1  0  0  0  0
  8  9  1  0  0  0  0
  8 10  1  0  0  0  0
  9 37  1  0  0  0  0
  9 38  1  0  0  0  0
 10 11  1  0  0  0  0
 11 12  3  0  0  0  0
 13 14  1  0  0  0  0
 13 39  1  0  0  0  0
 14 15  2  0  0  0  0
 14 16  1  0  0  0  0
 16 17  1  0  0  0  0
 16 40  1  0  0  0  0
 16 41  1  0  0  0  0
 17 18  1  0  0  0  0
 17 28  2  0  0  0  0
 18 19  1  0  0  0  0
 18 21  2  0  0  0  0
 19 20  1  0  0  0  0
 20 42  1  0  0  0  0
 20 43  1  0  0  0  0
 20 44  1  0  0  0  0
 21 22  1  0  0  0  0
 21 45  1  0  0  0  0
 22 23  1  0  0  0  0
 22 27  2  0  0  0  0
 23 24  2  0  0  0  0
 23 25  2  0  0  0  0
 23 26  1  0  0  0  0
 26 46  1  0  0  0  0
 26 47  1  0  0  0  0
 26 48  1  0  0  0  0
 27 28  1  0  0  0  0
 27 29  1  0  0  0  0
 28 49  1  0  0  0  0
 29 30  1  0  0  0  0
 30 50  1  0  0  0  0
 30 51  1  0  0  0  0
 30 52  1  0  0  0  0
M  END
$$$$
jnk1_abbott_23_6t_2gmx
  MOE2024           3D
jnk1_abbott_23_6t_2gmx
 46 47  0  0  0  0  0  0  0  0999 V2000
   21.8960   67.6750    4.6960 C   0  0  0  0  0  0  0  0  0  0  0  0
   21.6531   66.7577    4.1803 H   0  0  0  0  0  0  0  0  0  0  0  0
   17.9570   63.9620   13.4090 N   0  0  0  0  0  0  0  0  0  0  0  0
   22.5580   67.6160    5.9760 C   0  0  0  0  0  0  0  0  0  0  0  0
   22.8720   68.8420    6.6610 C   0  0  0  0  0  0  0  0  0  0  0  0
   22.5340   70.0910    6.0580 C   0  0  0  0  0  0  0  0  0  0  0  0
   22.7812   71.0051    6.5773 H   0  0  0  0  0  0  0  0  0  0  0  0
   21.8830   70.1720    4.7970 C   0  0  0  0  0  0  0  0  0  0  0  0
   21.5550   68.9340    4.0970 C   0  0  0  0  0  0  0  0  0  0  0  0
   23.5660   68.8310    8.0160 C   0  0  0  0  0  0  0  0  0  0  0  0
   24.1162   69.7632    8.1439 H   0  0  0  0  0  0  0  0  0  0  0  0
   24.2598   67.9913    8.0560 H   0  0  0  0  0  0  0  0  0  0  0  0
   22.5430   68.6920    9.1460 C   0  0  0  0  0  0  0  0  0  0  0  0
   22.2070   67.4000    9.3910 N   0  0  0  0  0  0  0  0  0  0  0  0
   22.6742   66.7317    8.7950 H   0  0  0  0  0  0  0  0  0  0  0  0
   21.3480   66.8360   10.3010 C   0  0  0  0  0  0  0  0  0  0  0  0
   22.1280   69.6840    9.7150 O   0  0  0  0  0  0  0  0  0  0  0  0
   20.8880   65.6140    9.9010 N   0  0  0  0  0  0  0  0  0  0  0  0
   20.0190   64.8930   10.7000 C   0  0  0  0  0  0  0  0  0  0  0  0
   19.5780   65.4010   11.9550 C   0  0  0  0  0  0  0  0  0  0  0  0
   20.0530   66.6830   12.3860 C   0  0  0  0  0  0  0  0  0  0  0  0
   20.9430   67.4060   11.5500 C   0  0  0  0  0  0  0  0  0  0  0  0
   21.3106   68.3754   11.8527 H   0  0  0  0  0  0  0  0  0  0  0  0
   21.5750   71.4250    4.2490 O   0  0  0  0  0  0  0  0  0  0  0  0
   20.3340   71.9560    4.7010 C   0  0  0  0  0  0  0  0  0  0  0  0
   20.1628   72.9264    4.2351 H   0  0  0  0  0  0  0  0  0  0  0  0
   20.3618   72.0729    5.7844 H   0  0  0  0  0  0  0  0  0  0  0  0
   19.5271   71.2753    4.4297 H   0  0  0  0  0  0  0  0  0  0  0  0
   22.9320   66.4140    6.6310 O   0  0  0  0  0  0  0  0  0  0  0  0
   21.9440   65.4000    6.7730 C   0  0  0  0  0  0  0  0  0  0  0  0
   22.3745   64.5433    7.2915 H   0  0  0  0  0  0  0  0  0  0  0  0
   21.5962   65.0910    5.7873 H   0  0  0  0  0  0  0  0  0  0  0  0
   21.1043   65.7889    7.3490 H   0  0  0  0  0  0  0  0  0  0  0  0
   19.6780   67.2400   13.5730 N   0  0  0  0  0  0  0  0  0  0  0  0
   20.3258   66.9603   14.2957 H   0  0  0  0  0  0  0  0  0  0  0  0
   18.7488   66.9257   13.8137 H   0  0  0  0  0  0  0  0  0  0  0  0
   18.6690   64.6150   12.7700 C   0  0  0  0  0  0  0  0  0  0  0  0
   19.5460   63.6330   10.2830 O   0  0  0  0  0  0  0  0  0  0  0  0
   20.5360   62.6470   10.0130 C   0  0  0  0  0  0  0  0  0  0  0  0
   20.2116   61.7006   10.4457 H   0  0  0  0  0  0  0  0  0  0  0  0
   21.4718   62.9572   10.4779 H   0  0  0  0  0  0  0  0  0  0  0  0
   20.7810   62.4400    8.5020 C   0  0  0  0  0  0  0  0  0  0  0  0
   19.8527   62.1291    8.0227 H   0  0  0  0  0  0  0  0  0  0  0  0
   21.5393   61.6702    8.3590 H   0  0  0  0  0  0  0  0  0  0  0  0
   21.1238   63.3746    8.0581 H   0  0  0  0  0  0  0  0  0  0  0  0
   20.6590   68.9180    2.3690 Br  0  0  0  0  0  0  0  0  0  0  0  0
  1  2  1  0  0  0  0
  1  4  1  0  0  0  0
  1  9  2  0  0  0  0
  3 37  3  0  0  0  0
  4  5  2  0  0  0  0
  4 29  1  0  0  0  0
  5  6  1  0  0  0  0
  5 10  1  0  0  0  0
  6  7  1  0  0  0  0
  6  8  2  0  0  0  0
  8  9  1  0  0  0  0
  8 24  1  0  0  0  0
  9 46  1  0  0  0  0
 10 11  1  0  0  0  0
 10 12  1  0  0  0  0
 10 13  1  0  0  0  0
 13 14  1  0  0  0  0
 13 17  2  0  0  0  0
 14 15  1  0  0  0  0
 14 16  1  0  0  0  0
 16 18  1  0  0  0  0
 16 22  2  0  0  0  0
 18 19  2  0  0  0  0
 19 20  1  0  0  0  0
 19 38  1  0  0  0  0
 20 21  2  0  0  0  0
 20 37  1  0  0  0  0
 21 22  1  0  0  0  0
 21 34  1  0  0  0  0
 22 23  1  0  0  0  0
 24 25  1  0  0  0  0
 25 26  1  0  0  0  0
 25 27  1  0  0  0  0
 25 28  1  0  0  0  0
 29 30  1  0  0  0  0
 30 31  1  0  0  0  0
 30 32  1  0  0  0  0
 30 33  1  0  0  0  0
 34 35  1  0  0  0  0
 34 36  1  0  0  0  0
 38 39  1  0  0  0  0
 39 40  1  0  0  0  0
 39 41  1  0  0  0  0
 39 42  1  0  0  0  0
 42 43  1  0  0  0  0
 42 44  1  0  0  0  0
 42 45  1  0  0  0  0
M  END
$$$$
jnk1_abbott_24_6u
  MOE2024           3D
jnk1_abbott_24_6u
 48 49  0  0  0  0  0  0  0  0999 V2000
   20.2250   62.8370    8.3220 C   0  0  0  0  0  0  0  0  0  0  0  0
   20.8450   62.8480    9.7210 C   0  0  0  0  0  0  0  0  0  0  0  0
   19.9720   63.5270   10.6230 O   0  0  0  0  0  0  0  0  0  0  0  0
   20.0850   64.8950   10.8090 C   0  0  0  0  0  0  0  0  0  0  0  0
   20.8660   65.5860    9.9340 N   0  0  0  0  0  0  0  0  0  0  0  0
   21.0660   66.8930   10.1540 C   0  0  0  0  0  0  0  0  0  0  0  0
   20.4860   67.5820   11.2100 C   0  0  0  0  0  0  0  0  0  0  0  0
   19.6910   66.8770   12.0970 C   0  0  0  0  0  0  0  0  0  0  0  0
   19.1880   67.6070   13.1660 N   0  0  0  0  0  0  0  0  0  0  0  0
   19.4660   65.5040   11.9050 C   0  0  0  0  0  0  0  0  0  0  0  0
   18.6600   64.6940   12.8110 C   0  0  0  0  0  0  0  0  0  0  0  0
   18.0230   64.0420   13.5240 N   0  0  0  0  0  0  0  0  0  0  0  0
   21.9230   67.4220    9.2090 N   0  0  0  0  0  0  0  0  0  0  0  0
   22.6070   68.5690    9.2110 C   0  0  0  0  0  0  0  0  0  0  0  0
   22.5810   69.3970   10.1180 O   0  0  0  0  0  0  0  0  0  0  0  0
   23.5360   68.7940    8.0240 C   0  0  0  0  0  0  0  0  0  0  0  0
   22.8120   68.8120    6.6810 C   0  0  0  0  0  0  0  0  0  0  0  0
   22.5150   67.6170    6.0170 C   0  0  0  0  0  0  0  0  0  0  0  0
   22.8700   66.4330    6.6420 O   0  0  0  0  0  0  0  0  0  0  0  0
   22.4450   65.1870    6.0930 C   0  0  0  0  0  0  0  0  0  0  0  0
   21.8740   67.6830    4.7740 C   0  0  0  0  0  0  0  0  0  0  0  0
   21.4830   68.9070    4.2050 C   0  0  0  0  0  0  0  0  0  0  0  0
   20.7730   68.8990    2.8980 N   0  3  0  0  0  0  0  0  0  0  0  0
   20.1080   69.8730    2.5610 O   0  5  0  0  0  0  0  0  0  0  0  0
   20.8520   67.8910    2.2010 O   0  0  0  0  0  0  0  0  0  0  0  0
   21.7790   70.1040    4.8900 C   0  0  0  0  0  0  0  0  0  0  0  0
   22.4460   70.0360    6.1200 C   0  0  0  0  0  0  0  0  0  0  0  0
   21.3850   71.3080    4.3390 O   0  0  0  0  0  0  0  0  0  0  0  0
   22.0790   72.5060    4.6820 C   0  0  0  0  0  0  0  0  0  0  0  0
   20.8920   62.3180    7.6330 H   0  0  0  0  0  0  0  0  0  0  0  0
   20.0770   63.8620    7.9820 H   0  0  0  0  0  0  0  0  0  0  0  0
   19.2650   62.3220    8.3540 H   0  0  0  0  0  0  0  0  0  0  0  0
   21.8050   63.3620    9.6880 H   0  0  0  0  0  0  0  0  0  0  0  0
   20.9930   61.8230   10.0610 H   0  0  0  0  0  0  0  0  0  0  0  0
   20.6510   68.6420   11.3370 H   0  0  0  0  0  0  0  0  0  0  0  0
   18.6210   67.1510   13.8670 H   0  0  0  0  0  0  0  0  0  0  0  0
   19.3890   68.5940   13.2430 H   0  0  0  0  0  0  0  0  0  0  0  0
   22.0530   66.8510    8.3870 H   0  0  0  0  0  0  0  0  0  0  0  0
   24.2750   67.9940    8.0080 H   0  0  0  0  0  0  0  0  0  0  0  0
   24.0400   69.7520    8.1570 H   0  0  0  0  0  0  0  0  0  0  0  0
   22.8160   64.3710    6.7130 H   0  0  0  0  0  0  0  0  0  0  0  0
   22.8390   65.0820    5.0810 H   0  0  0  0  0  0  0  0  0  0  0  0
   21.3560   65.1550    6.0630 H   0  0  0  0  0  0  0  0  0  0  0  0
   21.6750   66.7670    4.2370 H   0  0  0  0  0  0  0  0  0  0  0  0
   22.6820   70.9500    6.6450 H   0  0  0  0  0  0  0  0  0  0  0  0
   21.6310   73.3490    4.1550 H   0  0  0  0  0  0  0  0  0  0  0  0
   23.1270   72.4140    4.3970 H   0  0  0  0  0  0  0  0  0  0  0  0
   22.0080   72.6720    5.7570 H   0  0  0  0  0  0  0  0  0  0  0  0
  1  2  1  0  0  0  0
  1 30  1  0  0  0  0
  1 31  1  0  0  0  0
  1 32  1  0  0  0  0
  2  3  1  0  0  0  0
  2 33  1  0  0  0  0
  2 34  1  0  0  0  0
  3  4  1  0  0  0  0
  4  5  1  0  0  0  0
  4 10  2  0  0  0  0
  5  6  2  0  0  0  0
  6  7  1  0  0  0  0
  6 13  1  0  0  0  0
  7  8  2  0  0  0  0
  7 35  1  0  0  0  0
  8  9  1  0  0  0  0
  8 10  1  0  0  0  0
  9 36  1  0  0  0  0
  9 37  1  0  0  0  0
 10 11  1  0  0  0  0
 11 12  3  0  0  0  0
 13 14  1  0  0  0  0
 13 38  1  0  0  0  0
 14 15  2  0  0  0  0
 14 16  1  0  0  0  0
 16 17  1  0  0  0  0
 16 39  1  0  0  0  0
 16 40  1  0  0  0  0
 17 18  1  0  0  0  0
 17 27  2  0  0  0  0
 18 19  1  0  0  0  0
 18 21  2  0  0  0  0
 19 20  1  0  0  0  0
 20 41  1  0  0  0  0
 20 42  1  0  0  0  0
 20 43  1  0  0  0  0
 21 22  1  0  0  0  0
 21 44  1  0  0  0  0
 22 23  1  0  0  0  0
 22 26  2  0  0  0  0
 23 24  1  0  0  0  0
 23 25  2  0  0  0  0
 26 27  1  0  0  0  0
 26 28  1  0  0  0  0
 27 45  1  0  0  0  0
 28 29  1  0  0  0  0
 29 46  1  0  0  0  0
 29 47  1  0  0  0  0
 29 48  1  0  0  0  0
M  CHG  1  23   1
M  CHG  1  24  -1
M  END
$$$$
jnk1_abbott_25_7
  MOE2024           3D
jnk1_abbott_25_7
 29 29  0  0  0  0  0  0  0  0999 V2000
   20.0170   61.4340    9.3880 C   0  0  0  0  0  0  0  0  0  0  0  0
   20.4950   62.8860    9.4500 C   0  0  0  0  0  0  0  0  0  0  0  0
   19.9050   63.4920   10.5960 O   0  0  0  0  0  0  0  0  0  0  0  0
   20.1120   64.8380   10.8450 C   0  0  0  0  0  0  0  0  0  0  0  0
   20.8990   65.5210    9.9690 N   0  0  0  0  0  0  0  0  0  0  0  0
   21.1350   66.8200   10.2060 C   0  0  0  0  0  0  0  0  0  0  0  0
   20.5810   67.5090   11.2750 C   0  0  0  0  0  0  0  0  0  0  0  0
   19.7830   66.8120   12.1650 C   0  0  0  0  0  0  0  0  0  0  0  0
   19.2850   67.5510   13.2320 N   0  0  0  0  0  0  0  0  0  0  0  0
   19.5380   65.4440   11.9680 C   0  0  0  0  0  0  0  0  0  0  0  0
   18.7330   64.6410   12.8810 C   0  0  0  0  0  0  0  0  0  0  0  0
   18.0990   64.0310   13.6110 N   0  0  0  0  0  0  0  0  0  0  0  0
   21.9700   67.3640    9.2450 N   0  0  0  0  0  0  0  0  0  0  0  0
   22.5710   68.5770    9.2150 C   0  0  0  0  0  0  0  0  0  0  0  0
   23.3270   68.7320    8.1160 O   0  0  0  0  0  0  0  0  0  0  0  0
   24.0590   69.9670    7.8980 C   0  0  0  0  0  0  0  0  0  0  0  0
   22.4610   69.4400   10.0690 O   0  0  0  0  0  0  0  0  0  0  0  0
   20.4540   60.9440    8.5180 H   0  0  0  0  0  0  0  0  0  0  0  0
   18.9300   61.4120    9.3100 H   0  0  0  0  0  0  0  0  0  0  0  0
   20.3270   60.9110   10.2930 H   0  0  0  0  0  0  0  0  0  0  0  0
   20.1850   63.4170    8.5490 H   0  0  0  0  0  0  0  0  0  0  0  0
   21.5820   62.9160    9.5330 H   0  0  0  0  0  0  0  0  0  0  0  0
   20.7680   68.5640   11.4100 H   0  0  0  0  0  0  0  0  0  0  0  0
   18.7060   67.1040   13.9280 H   0  0  0  0  0  0  0  0  0  0  0  0
   19.5020   68.5340   13.3110 H   0  0  0  0  0  0  0  0  0  0  0  0
   22.1590   66.7690    8.4510 H   0  0  0  0  0  0  0  0  0  0  0  0
   24.6100   69.9020    6.9590 H   0  0  0  0  0  0  0  0  0  0  0  0
   24.7590   70.1240    8.7190 H   0  0  0  0  0  0  0  0  0  0  0  0
   23.3590   70.8010    7.8520 H   0  0  0  0  0  0  0  0  0  0  0  0
  1  2  1  0  0  0  0
  1 18  1  0  0  0  0
  1 19  1  0  0  0  0
  1 20  1  0  0  0  0
  2  3  1  0  0  0  0
  2 21  1  0  0  0  0
  2 22  1  0  0  0  0
  3  4  1  0  0  0  0
  4  5  1  0  0  0  0
  4 10  2  0  0  0  0
  5  6  2  0  0  0  0
  6  7  1  0  0  0  0
  6 13  1  0  0  0  0
  7  8  2  0  0  0  0
  7 23  1  0  0  0  0
  8  9  1  0  0  0  0
  8 10  1  0  0  0  0
  9 24  1  0  0  0  0
  9 25  1  0  0  0  0
 10 11  1  0  0  0  0
 11 12  3  0  0  0  0
 13 14  1  0  0  0  0
 13 26  1  0  0  0  0
 14 15  1  0  0  0  0
 14 17  2  0  0  0  0
 15 16  1  0  0  0  0
 16 27  1  0  0  0  0
 16 28  1  0  0  0  0
 16 29  1  0  0  0  0
M  END
$$$$
jnk1_abbott_26_8.X
  MOE2024           3D
jnk1_abbott_26_8
 33 33  0  0  0  0  0  0  0  0999 V2000
   19.0740   60.9340   10.2440 C   0  0  0  0  0  0  0  0  0  0  0  0
   19.5960   62.3700   10.3400 C   0  0  0  0  0  0  0  0  0  0  0  0
   19.0190   62.9670   11.4980 O   0  0  0  0  0  0  0  0  0  0  0  0
   19.2660   64.3000   11.7780 C   0  0  0  0  0  0  0  0  0  0  0  0
   20.0770   64.9780   10.9220 N   0  0  0  0  0  0  0  0  0  0  0  0
   20.3520   66.2640   11.1880 C   0  0  0  0  0  0  0  0  0  0  0  0
   19.8200   66.9530   12.2740 C   0  0  0  0  0  0  0  0  0  0  0  0
   18.9900   66.2540   13.1410 C   0  0  0  0  0  0  0  0  0  0  0  0
   18.5090   66.9830   14.2220 N   0  0  0  0  0  0  0  0  0  0  0  0
   18.7040   64.8980   12.9120 C   0  0  0  0  0  0  0  0  0  0  0  0
   17.8700   64.1010   13.8020 C   0  0  0  0  0  0  0  0  0  0  0  0
   17.2090   63.4600   14.5040 N   0  0  0  0  0  0  0  0  0  0  0  0
   21.1950   66.8100   10.2340 N   0  0  0  0  0  0  0  0  0  0  0  0
   21.9150   67.9620   10.3060 C   0  0  0  0  0  0  0  0  0  0  0  0
   21.9580   68.6890   11.2860 O   0  0  0  0  0  0  0  0  0  0  0  0
   22.5990   68.2270    9.1660 N   0  0  0  0  0  0  0  0  0  0  0  0
   23.4060   69.4310    8.9940 C   0  0  0  0  0  0  0  0  0  0  0  0
   22.6510   70.2590    7.9580 C   0  0  0  0  0  0  0  0  0  0  0  0
   19.5000   60.4510    9.3650 H   0  0  0  0  0  0  0  0  0  0  0  0
   17.9870   60.9480   10.1600 H   0  0  0  0  0  0  0  0  0  0  0  0
   19.3630   60.3820   11.1380 H   0  0  0  0  0  0  0  0  0  0  0  0
   19.3070   62.9300    9.4510 H   0  0  0  0  0  0  0  0  0  0  0  0
   20.6830   62.3640   10.4290 H   0  0  0  0  0  0  0  0  0  0  0  0
   20.0440   67.9970   12.4370 H   0  0  0  0  0  0  0  0  0  0  0  0
   17.9120   66.5390   14.9050 H   0  0  0  0  0  0  0  0  0  0  0  0
   18.7560   67.9570   14.3240 H   0  0  0  0  0  0  0  0  0  0  0  0
   21.3620   66.2120    9.4260 H   0  0  0  0  0  0  0  0  0  0  0  0
   22.4610   67.6180    8.3550 H   0  0  0  0  0  0  0  0  0  0  0  0
   24.4000   69.1750    8.6220 H   0  0  0  0  0  0  0  0  0  0  0  0
   23.5030   69.9940    9.9270 H   0  0  0  0  0  0  0  0  0  0  0  0
   22.5610   69.7060    7.0230 H   0  0  0  0  0  0  0  0  0  0  0  0
   23.1940   71.1860    7.7730 H   0  0  0  0  0  0  0  0  0  0  0  0
   21.6570   70.5040    8.3360 H   0  0  0  0  0  0  0  0  0  0  0  0
  1  2  1  0  0  0  0
  1 19  1  0  0  0  0
  1 20  1  0  0  0  0
  1 21  1  0  0  0  0
  2  3  1  0  0  0  0
  2 22  1  0  0  0  0
  2 23  1  0  0  0  0
  3  4  1  0  0  0  0
  4  5  1  0  0  0  0
  4 10  2  0  0  0  0
  5  6  2  0  0  0  0
  6  7  1  0  0  0  0
  6 13  1  0  0  0  0
  7  8  2  0  0  0  0
  7 24  1  0  0  0  0
  8  9  1  0  0  0  0
  8 10  1  0  0  0  0
  9 25  1  0  0  0  0
  9 26  1  0  0  0  0
 10 11  1  0  0  0  0
 11 12  3  0  0  0  0
 13 14  1  0  0  0  0
 13 27  1  0  0  0  0
 14 15  2  0  0  0  0
 14 16  1  0  0  0  0
 16 17  1  0  0  0  0
 16 28  1  0  0  0  0
 17 18  1  0  0  0  0
 17 29  1  0  0  0  0
 17 30  1  0  0  0  0
 18 31  1  0  0  0  0
 18 32  1  0  0  0  0
 18 33  1  0  0  0  0
M  END
$$$$
jnk1_abbott_27_10.X
  MOE2024           3D
jnk1_abbott_27_10
 47 48  0  0  0  0  0  0  0  0999 V2000
   17.6420   59.0660   10.7520 C   0  0  0  0  0  0  0  0  0  0  0  0
   18.2260   60.4760   10.8690 C   0  0  0  0  0  0  0  0  0  0  0  0
   17.7200   61.0600   12.0660 O   0  0  0  0  0  0  0  0  0  0  0  0
   18.0310   62.3730   12.3740 C   0  0  0  0  0  0  0  0  0  0  0  0
   18.8350   63.0440   11.5050 N   0  0  0  0  0  0  0  0  0  0  0  0
   19.1720   64.3100   11.7970 C   0  0  0  0  0  0  0  0  0  0  0  0
   18.7050   64.9780   12.9200 C   0  0  0  0  0  0  0  0  0  0  0  0
   17.8900   64.2930   13.8030 C   0  0  0  0  0  0  0  0  0  0  0  0
   17.4820   65.0070   14.9230 N   0  0  0  0  0  0  0  0  0  0  0  0
   17.5340   62.9480   13.5520 C   0  0  0  0  0  0  0  0  0  0  0  0
   16.7110   62.1670   14.4470 C   0  0  0  0  0  0  0  0  0  0  0  0
   16.0530   61.5310   15.1570 N   0  0  0  0  0  0  0  0  0  0  0  0
   20.0160   64.8310   10.8250 N   0  0  0  0  0  0  0  0  0  0  0  0
   18.0140   58.5930    9.8430 H   0  0  0  0  0  0  0  0  0  0  0  0
   16.5550   59.1240   10.7130 H   0  0  0  0  0  0  0  0  0  0  0  0
   17.9440   58.4750   11.6170 H   0  0  0  0  0  0  0  0  0  0  0  0
   17.9250   61.0740   10.0090 H   0  0  0  0  0  0  0  0  0  0  0  0
   19.3140   60.4250   10.9130 H   0  0  0  0  0  0  0  0  0  0  0  0
   18.9720   66.0090   13.1000 H   0  0  0  0  0  0  0  0  0  0  0  0
   16.8970   64.5660   15.6180 H   0  0  0  0  0  0  0  0  0  0  0  0
   17.7710   65.9680   15.0430 H   0  0  0  0  0  0  0  0  0  0  0  0
   20.3740   64.1560   10.1640 H   0  0  0  0  0  0  0  0  0  0  0  0
   20.3527   66.2174   10.7643 C   0  0  0  0  0  0  0  0  0  0  0  0
   19.8523   66.7486   11.5739 H   0  0  0  0  0  0  0  0  0  0  0  0
   19.9316   66.7551    9.5103 C   0  0  0  0  0  0  0  0  0  0  0  0
   18.8526   66.6385    9.4089 H   0  0  0  0  0  0  0  0  0  0  0  0
   20.1886   67.8134    9.4639 H   0  0  0  0  0  0  0  0  0  0  0  0
   21.4317   66.3340   10.8656 H   0  0  0  0  0  0  0  0  0  0  0  0
   21.8376   64.7331    6.4281 C   0  0  0  0  0  0  0  0  0  0  0  0
   22.3374   64.2038    5.6210 H   0  0  0  0  0  0  0  0  0  0  0  0
   22.5262   65.7043    7.1556 C   0  0  0  0  0  0  0  0  0  0  0  0
   23.5616   65.9314    6.9152 H   0  0  0  0  0  0  0  0  0  0  0  0
   21.8859   66.3840    8.1914 C   0  0  0  0  0  0  0  0  0  0  0  0
   22.5900   67.3782    8.9364 O   0  0  0  0  0  0  0  0  0  0  0  0
   21.8323   68.0061    9.9713 C   0  0  0  0  0  0  0  0  0  0  0  0
   22.4529   68.7446   10.4789 H   0  0  0  0  0  0  0  0  0  0  0  0
   21.5031   67.2538   10.6881 H   0  0  0  0  0  0  0  0  0  0  0  0
   20.9627   68.4992    9.5369 H   0  0  0  0  0  0  0  0  0  0  0  0
   20.5560   66.0923    8.5001 C   0  0  0  0  0  0  0  0  0  0  0  0
   19.8684   65.1213    7.7725 C   0  0  0  0  0  0  0  0  0  0  0  0
   18.8329   64.8942    8.0129 H   0  0  0  0  0  0  0  0  0  0  0  0
   20.5087   64.4416    6.7366 C   0  0  0  0  0  0  0  0  0  0  0  0
   19.8046   63.4474    5.9916 O   0  0  0  0  0  0  0  0  0  0  0  0
   18.4519   63.2350    6.3968 C   0  0  0  0  0  0  0  0  0  0  0  0
   18.0026   62.4628    5.7723 H   0  0  0  0  0  0  0  0  0  0  0  0
   17.8901   64.1627    6.2880 H   0  0  0  0  0  0  0  0  0  0  0  0
   18.4305   62.9173    7.4392 H   0  0  0  0  0  0  0  0  0  0  0  0
  1  2  1  0  0  0  0
  1 14  1  0  0  0  0
  1 15  1  0  0  0  0
  1 16  1  0  0  0  0
  2  3  1  0  0  0  0
  2 17  1  0  0  0  0
  2 18  1  0  0  0  0
  3  4  1  0  0  0  0
  4  5  1  0  0  0  0
  4 10  2  0  0  0  0
  5  6  2  0  0  0  0
  6  7  1  0  0  0  0
  6 13  1  0  0  0  0
  7  8  2  0  0  0  0
  7 19  1  0  0  0  0
  8  9  1  0  0  0  0
  8 10  1  0  0  0  0
  9 20  1  0  0  0  0
  9 21  1  0  0  0  0
 10 11  1  0  0  0  0
 11 12  3  0  0  0  0
 13 22  1  0  0  0  0
 13 23  1  0  0  0  0
 23 24  1  0  0  0  0
 23 25  1  0  0  0  0
 23 28  1  0  0  0  0
 25 26  1  0  0  0  0
 25 27  1  0  0  0  0
 25 39  1  0  0  0  0
 29 30  1  0  0  0  0
 29 31  1  0  0  0  0
 29 42  2  0  0  0  0
 31 32  1  0  0  0  0
 31 33  2  0  0  0  0
 33 34  1  0  0  0  0
 33 39  1  0  0  0  0
 34 35  1  0  0  0  0
 35 36  1  0  0  0  0
 35 37  1  0  0  0  0
 35 38  1  0  0  0  0
 39 40  2  0  0  0  0
 40 41  1  0  0  0  0
 40 42  1  0  0  0  0
 42 43  1  0  0  0  0
 43 44  1  0  0  0  0
 44 45  1  0  0  0  0
 44 46  1  0  0  0  0
 44 47  1  0  0  0  0
M  END
$$$$
jnk1_abbott_28_28a
  MOE2024           3D
jnk1_abbott_28_28a
 36 36  0  0  0  0  0  0  0  0999 V2000
   19.9400   61.4590    9.3310 C   0  0  0  0  0  0  0  0  0  0  0  0
   20.4860   62.8850    9.4400 C   0  0  0  0  0  0  0  0  0  0  0  0
   19.8800   63.4980   10.5730 O   0  0  0  0  0  0  0  0  0  0  0  0
   20.1430   64.8280   10.8570 C   0  0  0  0  0  0  0  0  0  0  0  0
   20.9970   65.4860   10.0270 N   0  0  0  0  0  0  0  0  0  0  0  0
   21.2870   66.7680   10.2980 C   0  0  0  0  0  0  0  0  0  0  0  0
   20.7310   67.4720   11.3610 C   0  0  0  0  0  0  0  0  0  0  0  0
   19.8570   66.7930   12.2010 C   0  0  0  0  0  0  0  0  0  0  0  0
   19.3530   67.5360   13.2610 N   0  0  0  0  0  0  0  0  0  0  0  0
   19.5540   65.4420   11.9680 C   0  0  0  0  0  0  0  0  0  0  0  0
   18.6730   64.6640   12.8310 C   0  0  0  0  0  0  0  0  0  0  0  0
   17.9760   64.0400   13.5130 N   0  0  0  0  0  0  0  0  0  0  0  0
   22.1800   67.2880    9.3740 N   0  0  0  0  0  0  0  0  0  0  0  0
   22.5930   68.5710    9.1540 C   0  0  0  0  0  0  0  0  0  0  0  0
   22.1780   69.4950    9.8230 O   0  0  0  0  0  0  0  0  0  0  0  0
   23.5990   68.7580    8.0190 C   0  0  0  0  0  0  0  0  0  0  0  0
   23.3620   67.7290    6.9340 N   0  0  0  0  0  0  0  0  0  0  0  0
   24.5330   67.6560    6.0430 C   0  0  0  0  0  0  0  0  0  0  0  0
   22.1560   68.0690    6.1450 C   0  0  0  0  0  0  0  0  0  0  0  0
   20.3870   60.9640    8.4690 H   0  0  0  0  0  0  0  0  0  0  0  0
   18.8570   61.4930    9.2080 H   0  0  0  0  0  0  0  0  0  0  0  0
   20.1860   60.9050   10.2370 H   0  0  0  0  0  0  0  0  0  0  0  0
   20.2390   63.4460    8.5380 H   0  0  0  0  0  0  0  0  0  0  0  0
   21.5680   62.8580    9.5670 H   0  0  0  0  0  0  0  0  0  0  0  0
   20.9720   68.5110   11.5290 H   0  0  0  0  0  0  0  0  0  0  0  0
   18.7240   67.1070   13.9250 H   0  0  0  0  0  0  0  0  0  0  0  0
   19.6150   68.5060   13.3680 H   0  0  0  0  0  0  0  0  0  0  0  0
   22.5950   66.6020    8.7590 H   0  0  0  0  0  0  0  0  0  0  0  0
   24.6090   68.6400    8.4110 H   0  0  0  0  0  0  0  0  0  0  0  0
   23.4860   69.7570    7.5990 H   0  0  0  0  0  0  0  0  0  0  0  0
   25.4190   67.4060    6.6280 H   0  0  0  0  0  0  0  0  0  0  0  0
   24.6800   68.6200    5.5560 H   0  0  0  0  0  0  0  0  0  0  0  0
   24.3680   66.8880    5.2880 H   0  0  0  0  0  0  0  0  0  0  0  0
   21.2920   68.1220    6.8070 H   0  0  0  0  0  0  0  0  0  0  0  0
   21.9880   67.3010    5.3900 H   0  0  0  0  0  0  0  0  0  0  0  0
   22.3000   69.0330    5.6580 H   0  0  0  0  0  0  0  0  0  0  0  0
  1  2  1  0  0  0  0
  1 20  1  0  0  0  0
  1 21  1  0  0  0  0
  1 22  1  0  0  0  0
  2  3  1  0  0  0  0
  2 23  1  0  0  0  0
  2 24  1  0  0  0  0
  3  4  1  0  0  0  0
  4  5  1  0  0  0  0
  4 10  2  0  0  0  0
  5  6  2  0  0  0  0
  6  7  1  0  0  0  0
  6 13  1  0  0  0  0
  7  8  2  0  0  0  0
  7 25  1  0  0  0  0
  8  9  1  0  0  0  0
  8 10  1  0  0  0  0
  9 26  1  0  0  0  0
  9 27  1  0  0  0  0
 10 11  1  0  0  0  0
 11 12  3  0  0  0  0
 13 14  1  0  0  0  0
 13 28  1  0  0  0  0
 14 15  2  0  0  0  0
 14 16  1  0  0  0  0
 16 17  1  0  0  0  0
 16 29  1  0  0  0  0
 16 30  1  0  0  0  0
 17 18  1  0  0  0  0
 17 19  1  0  0  0  0
 18 31  1  0  0  0  0
 18 32  1  0  0  0  0
 18 33  1  0  0  0  0
 19 34  1  0  0  0  0
 19 35  1  0  0  0  0
 19 36  1  0  0  0  0
M  END
$$$$
jnk1_abbott_29_28b.X
  MOE2024           3D
jnk1_abbott_29_28b
 54 54  0  0  0  0  0  0  0  0999 V2000
   19.7710   61.0110   10.2000 C   0  0  0  0  0  0  0  0  0  0  0  0
   20.2540   62.4630   10.2290 C   0  0  0  0  0  0  0  0  0  0  0  0
   19.5620   63.1320   11.2780 O   0  0  0  0  0  0  0  0  0  0  0  0
   19.7570   64.4890   11.4720 C   0  0  0  0  0  0  0  0  0  0  0  0
   20.6300   65.1200   10.6410 N   0  0  0  0  0  0  0  0  0  0  0  0
   20.8550   66.4300   10.8280 C   0  0  0  0  0  0  0  0  0  0  0  0
   20.2130   67.1860   11.8030 C   0  0  0  0  0  0  0  0  0  0  0  0
   19.3210   66.5350   12.6450 C   0  0  0  0  0  0  0  0  0  0  0  0
   18.7290   67.3330   13.6170 N   0  0  0  0  0  0  0  0  0  0  0  0
   19.0830   65.1590   12.5000 C   0  0  0  0  0  0  0  0  0  0  0  0
   18.1860   64.4110   13.3720 C   0  0  0  0  0  0  0  0  0  0  0  0
   17.4760   63.8090   14.0610 N   0  0  0  0  0  0  0  0  0  0  0  0
   21.7880   66.9130    9.9250 N   0  0  0  0  0  0  0  0  0  0  0  0
   22.2070   68.1830    9.6570 C   0  0  0  0  0  0  0  0  0  0  0  0
   21.7530   69.1400   10.2510 O   0  0  0  0  0  0  0  0  0  0  0  0
   23.3320   68.3220    8.6250 C   0  0  0  0  0  0  0  0  0  0  0  0
   22.8990   67.9750    7.2110 N   0  0  0  0  0  0  0  0  0  0  0  0
   23.8920   68.4040    6.2060 C   0  0  0  0  0  0  0  0  0  0  0  0
   23.1080   69.3530    5.2880 C   0  0  0  0  0  0  0  0  0  0  0  0
   24.0790   69.8390    4.2010 C   0  0  0  0  0  0  0  0  0  0  0  0
   23.3640   70.7980    3.2430 C   0  0  0  0  0  0  0  0  0  0  0  0
   22.3430   66.6210    6.9360 C   0  0  0  0  0  0  0  0  0  0  0  0
   23.3750   65.5410    7.3390 C   0  0  0  0  0  0  0  0  0  0  0  0
   22.6840   64.1840    7.1380 C   0  0  0  0  0  0  0  0  0  0  0  0
   23.6160   63.0430    7.5600 C   0  0  0  0  0  0  0  0  0  0  0  0
   20.2850   60.4720    9.4040 H   0  0  0  0  0  0  0  0  0  0  0  0
   18.6960   60.9890   10.0180 H   0  0  0  0  0  0  0  0  0  0  0  0
   19.9870   60.5370   11.1580 H   0  0  0  0  0  0  0  0  0  0  0  0
   20.0370   62.9440    9.2750 H   0  0  0  0  0  0  0  0  0  0  0  0
   21.3280   62.4920   10.4150 H   0  0  0  0  0  0  0  0  0  0  0  0
   20.4020   68.2450   11.9010 H   0  0  0  0  0  0  0  0  0  0  0  0
   18.0810   66.9280   14.2770 H   0  0  0  0  0  0  0  0  0  0  0  0
   18.9470   68.3180   13.6630 H   0  0  0  0  0  0  0  0  0  0  0  0
   22.2350   66.2000    9.3660 H   0  0  0  0  0  0  0  0  0  0  0  0
   24.1500   67.6840    8.9250 H   0  0  0  0  0  0  0  0  0  0  0  0
   23.6220   69.3640    8.6430 H   0  0  0  0  0  0  0  0  0  0  0  0
   24.2530   67.5670    5.6220 H   0  0  0  0  0  0  0  0  0  0  0  0
   24.6980   68.9600    6.6690 H   0  0  0  0  0  0  0  0  0  0  0  0
   22.7340   70.1990    5.8680 H   0  0  0  0  0  0  0  0  0  0  0  0
   22.2680   68.8250    4.8340 H   0  0  0  0  0  0  0  0  0  0  0  0
   24.4560   68.9850    3.6340 H   0  0  0  0  0  0  0  0  0  0  0  0
   24.9210   70.3580    4.6620 H   0  0  0  0  0  0  0  0  0  0  0  0
   22.5230   70.2920    2.7660 H   0  0  0  0  0  0  0  0  0  0  0  0
   24.0600   71.1320    2.4730 H   0  0  0  0  0  0  0  0  0  0  0  0
   22.9960   71.6660    3.7910 H   0  0  0  0  0  0  0  0  0  0  0  0
   21.4250   66.4850    7.4900 H   0  0  0  0  0  0  0  0  0  0  0  0
   22.1480   66.5290    5.8750 H   0  0  0  0  0  0  0  0  0  0  0  0
   23.6800   65.6310    8.3790 H   0  0  0  0  0  0  0  0  0  0  0  0
   24.2570   65.6030    6.7020 H   0  0  0  0  0  0  0  0  0  0  0  0
   22.4180   64.0580    6.0860 H   0  0  0  0  0  0  0  0  0  0  0  0
   21.7730   64.1370    7.7390 H   0  0  0  0  0  0  0  0  0  0  0  0
   24.5320   63.0690    6.9690 H   0  0  0  0  0  0  0  0  0  0  0  0
   23.1190   62.0850    7.3970 H   0  0  0  0  0  0  0  0  0  0  0  0
   23.8670   63.1350    8.6180 H   0  0  0  0  0  0  0  0  0  0  0  0
  1  2  1  0  0  0  0
  1 26  1  0  0  0  0
  1 27  1  0  0  0  0
  1 28  1  0  0  0  0
  2  3  1  0  0  0  0
  2 29  1  0  0  0  0
  2 30  1  0  0  0  0
  3  4  1  0  0  0  0
  4  5  1  0  0  0  0
  4 10  2  0  0  0  0
  5  6  2  0  0  0  0
  6  7  1  0  0  0  0
  6 13  1  0  0  0  0
  7  8  2  0  0  0  0
  7 31  1  0  0  0  0
  8  9  1  0  0  0  0
  8 10  1  0  0  0  0
  9 32  1  0  0  0  0
  9 33  1  0  0  0  0
 10 11  1  0  0  0  0
 11 12  3  0  0  0  0
 13 14  1  0  0  0  0
 13 34  1  0  0  0  0
 14 15  2  0  0  0  0
 14 16  1  0  0  0  0
 16 17  1  0  0  0  0
 16 35  1  0  0  0  0
 16 36  1  0  0  0  0
 17 18  1  0  0  0  0
 17 22  1  0  0  0  0
 18 19  1  0  0  0  0
 18 37  1  0  0  0  0
 18 38  1  0  0  0  0
 19 20  1  0  0  0  0
 19 39  1  0  0  0  0
 19 40  1  0  0  0  0
 20 21  1  0  0  0  0
 20 41  1  0  0  0  0
 20 42  1  0  0  0  0
 21 43  1  0  0  0  0
 21 44  1  0  0  0  0
 21 45  1  0  0  0  0
 22 23  1  0  0  0  0
 22 46  1  0  0  0  0
 22 47  1  0  0  0  0
 23 24  1  0  0  0  0
 23 48  1  0  0  0  0
 23 49  1  0  0  0  0
 24 25  1  0  0  0  0
 24 50  1  0  0  0  0
 24 51  1  0  0  0  0
 25 52  1  0  0  0  0
 25 53  1  0  0  0  0
 25 54  1  0  0  0  0
M  END
$$$$
jnk1_abbott_30_28c
  MOE2024           3D
jnk1_abbott_30_28c
 42 42  0  0  0  0  0  0  0  0999 V2000
   19.8110   61.6400    9.0640 C   0  0  0  0  0  0  0  0  0  0  0  0
   20.4080   63.0370    9.2490 C   0  0  0  0  0  0  0  0  0  0  0  0
   19.8360   63.6040   10.4250 O   0  0  0  0  0  0  0  0  0  0  0  0
   20.1490   64.9040   10.7820 C   0  0  0  0  0  0  0  0  0  0  0  0
   21.0180   65.5800    9.9810 N   0  0  0  0  0  0  0  0  0  0  0  0
   21.3560   66.8330   10.3230 C   0  0  0  0  0  0  0  0  0  0  0  0
   20.8370   67.4920   11.4320 C   0  0  0  0  0  0  0  0  0  0  0  0
   19.9480   66.7950   12.2430 C   0  0  0  0  0  0  0  0  0  0  0  0
   19.4820   67.4920   13.3510 N   0  0  0  0  0  0  0  0  0  0  0  0
   19.5940   65.4720   11.9340 C   0  0  0  0  0  0  0  0  0  0  0  0
   18.6950   64.6770   12.7620 C   0  0  0  0  0  0  0  0  0  0  0  0
   17.9830   64.0380   13.4140 N   0  0  0  0  0  0  0  0  0  0  0  0
   22.2670   67.3610    9.4220 N   0  0  0  0  0  0  0  0  0  0  0  0
   22.5830   68.6700    9.1760 C   0  0  0  0  0  0  0  0  0  0  0  0
   22.0770   69.5670    9.8150 O   0  0  0  0  0  0  0  0  0  0  0  0
   23.5560   68.9210    8.0240 C   0  0  0  0  0  0  0  0  0  0  0  0
   22.9560   68.4520    6.7330 N   0  0  0  0  0  0  0  0  0  0  0  0
   21.9130   69.3940    6.2730 C   0  0  0  0  0  0  0  0  0  0  0  0
   21.3160   68.8930    4.9600 C   0  0  0  0  0  0  0  0  0  0  0  0
   20.2270   69.8460    4.4490 C   0  0  0  0  0  0  0  0  0  0  0  0
   19.6300   69.3290    3.1370 C   0  0  0  0  0  0  0  0  0  0  0  0
   20.2310   61.1810    8.1690 H   0  0  0  0  0  0  0  0  0  0  0  0
   18.7290   61.7200    8.9570 H   0  0  0  0  0  0  0  0  0  0  0  0
   20.0460   61.0260    9.9330 H   0  0  0  0  0  0  0  0  0  0  0  0
   20.1730   63.6590    8.3860 H   0  0  0  0  0  0  0  0  0  0  0  0
   21.4900   62.9660    9.3610 H   0  0  0  0  0  0  0  0  0  0  0  0
   21.1140   68.5110   11.6560 H   0  0  0  0  0  0  0  0  0  0  0  0
   18.8450   67.0470   13.9960 H   0  0  0  0  0  0  0  0  0  0  0  0
   19.7790   68.4440   13.5110 H   0  0  0  0  0  0  0  0  0  0  0  0
   22.7690   66.6830    8.8670 H   0  0  0  0  0  0  0  0  0  0  0  0
   24.4830   68.3780    8.2100 H   0  0  0  0  0  0  0  0  0  0  0  0
   23.7680   69.9880    7.9570 H   0  0  0  0  0  0  0  0  0  0  0  0
   22.5430   67.5410    6.8700 H   0  0  0  0  0  0  0  0  0  0  0  0
   22.3550   70.3790    6.1180 H   0  0  0  0  0  0  0  0  0  0  0  0
   21.1280   69.4630    7.0260 H   0  0  0  0  0  0  0  0  0  0  0  0
   20.8790   67.9070    5.1210 H   0  0  0  0  0  0  0  0  0  0  0  0
   22.1060   68.8220    4.2130 H   0  0  0  0  0  0  0  0  0  0  0  0
   20.6640   70.8310    4.2810 H   0  0  0  0  0  0  0  0  0  0  0  0
   19.4380   69.9220    5.1970 H   0  0  0  0  0  0  0  0  0  0  0  0
   20.4150   69.2510    2.3850 H   0  0  0  0  0  0  0  0  0  0  0  0
   18.8620   70.0200    2.7890 H   0  0  0  0  0  0  0  0  0  0  0  0
   19.1860   68.3470    3.3020 H   0  0  0  0  0  0  0  0  0  0  0  0
  1  2  1  0  0  0  0
  1 22  1  0  0  0  0
  1 23  1  0  0  0  0
  1 24  1  0  0  0  0
  2  3  1  0  0  0  0
  2 25  1  0  0  0  0
  2 26  1  0  0  0  0
  3  4  1  0  0  0  0
  4  5  1  0  0  0  0
  4 10  2  0  0  0  0
  5  6  2  0  0  0  0
  6  7  1  0  0  0  0
  6 13  1  0  0  0  0
  7  8  2  0  0  0  0
  7 27  1  0  0  0  0
  8  9  1  0  0  0  0
  8 10  1  0  0  0  0
  9 28  1  0  0  0  0
  9 29  1  0  0  0  0
 10 11  1  0  0  0  0
 11 12  3  0  0  0  0
 13 14  1  0  0  0  0
 13 30  1  0  0  0  0
 14 15  2  0  0  0  0
 14 16  1  0  0  0  0
 16 17  1  0  0  0  0
 16 31  1  0  0  0  0
 16 32  1  0  0  0  0
 17 18  1  0  0  0  0
 17 33  1  0  0  0  0
 18 19  1  0  0  0  0
 18 34  1  0  0  0  0
 18 35  1  0  0  0  0
 19 20  1  0  0  0  0
 19 36  1  0  0  0  0
 19 37  1  0  0  0  0
 20 21  1  0  0  0  0
 20 38  1  0  0  0  0
 20 39  1  0  0  0  0
 21 40  1  0  0  0  0
 21 41  1  0  0  0  0
 21 42  1  0  0  0  0
M  END
$$$$
jnk1_abbott_31_28d
  MOE2024           3D
jnk1_abbott_31_28d
 46 46  0  0  0  0  0  0  0  0999 V2000
   19.7030   61.5500    9.2570 C   0  0  0  0  0  0  0  0  0  0  0  0
   20.3360   62.9400    9.2630 C   0  0  0  0  0  0  0  0  0  0  0  0
   19.8170   63.5790   10.4520 O   0  0  0  0  0  0  0  0  0  0  0  0
   20.1490   64.8630   10.7990 C   0  0  0  0  0  0  0  0  0  0  0  0
   21.0090   65.5340    9.9850 N   0  0  0  0  0  0  0  0  0  0  0  0
   21.3540   66.7880   10.3170 C   0  0  0  0  0  0  0  0  0  0  0  0
   20.8490   67.4530   11.4290 C   0  0  0  0  0  0  0  0  0  0  0  0
   19.9700   66.7620   12.2540 C   0  0  0  0  0  0  0  0  0  0  0  0
   19.4670   67.4290   13.3680 N   0  0  0  0  0  0  0  0  0  0  0  0
   19.6100   65.4380   11.9560 C   0  0  0  0  0  0  0  0  0  0  0  0
   18.7190   64.6930   12.7960 C   0  0  0  0  0  0  0  0  0  0  0  0
   18.0130   64.1160   13.4870 N   0  0  0  0  0  0  0  0  0  0  0  0
   22.2540   67.3240    9.4080 N   0  0  0  0  0  0  0  0  0  0  0  0
   22.5340   68.6330    9.1330 C   0  0  0  0  0  0  0  0  0  0  0  0
   21.9970   69.5260    9.7580 O   0  0  0  0  0  0  0  0  0  0  0  0
   23.5310   68.9090    8.0020 C   0  0  0  0  0  0  0  0  0  0  0  0
   22.8880   68.8450    6.6250 N   0  0  0  0  0  0  0  0  0  0  0  0
   22.3620   67.4940    6.2390 C   0  0  0  0  0  0  0  0  0  0  0  0
   23.5430   66.5080    6.1040 C   0  0  0  0  0  0  0  0  0  0  0  0
   23.7270   65.8780    7.3700 O   0  0  0  0  0  0  0  0  0  0  0  0
   21.8320   69.8760    6.5100 C   0  0  0  0  0  0  0  0  0  0  0  0
   21.8780   70.3550    5.0480 C   0  0  0  0  0  0  0  0  0  0  0  0
   20.8450   71.4830    4.9130 C   0  0  0  0  0  0  0  0  0  0  0  0
   20.0470   60.9980    8.3830 H   0  0  0  0  0  0  0  0  0  0  0  0
   18.6180   61.6450    9.2230 H   0  0  0  0  0  0  0  0  0  0  0  0
   19.9930   61.0150   10.1620 H   0  0  0  0  0  0  0  0  0  0  0  0
   20.0470   63.4970    8.3710 H   0  0  0  0  0  0  0  0  0  0  0  0
   21.4220   62.8670    9.3100 H   0  0  0  0  0  0  0  0  0  0  0  0
   21.1310   68.4730   11.6450 H   0  0  0  0  0  0  0  0  0  0  0  0
   18.8230   66.9600   13.9890 H   0  0  0  0  0  0  0  0  0  0  0  0
   19.7450   68.3810   13.5550 H   0  0  0  0  0  0  0  0  0  0  0  0
   22.7800   66.6480    8.8720 H   0  0  0  0  0  0  0  0  0  0  0  0
   24.3270   68.1660    8.0510 H   0  0  0  0  0  0  0  0  0  0  0  0
   23.9530   69.9030    8.1440 H   0  0  0  0  0  0  0  0  0  0  0  0
   21.8360   67.5660    5.2870 H   0  0  0  0  0  0  0  0  0  0  0  0
   21.6750   67.1380    7.0070 H   0  0  0  0  0  0  0  0  0  0  0  0
   24.4470   67.0470    5.8230 H   0  0  0  0  0  0  0  0  0  0  0  0
   23.3160   65.7580    5.3460 H   0  0  0  0  0  0  0  0  0  0  0  0
   23.9240   66.5660    8.0100 H   0  0  0  0  0  0  0  0  0  0  0  0
   22.0350   70.7060    7.1880 H   0  0  0  0  0  0  0  0  0  0  0  0
   20.8560   69.4490    6.7390 H   0  0  0  0  0  0  0  0  0  0  0  0
   21.6260   69.5340    4.3770 H   0  0  0  0  0  0  0  0  0  0  0  0
   22.8740   70.7280    4.8070 H   0  0  0  0  0  0  0  0  0  0  0  0
   19.8550   71.0990    5.1550 H   0  0  0  0  0  0  0  0  0  0  0  0
   20.8490   71.8580    3.8890 H   0  0  0  0  0  0  0  0  0  0  0  0
   21.0990   72.2920    5.5970 H   0  0  0  0  0  0  0  0  0  0  0  0
  1  2  1  0  0  0  0
  1 24  1  0  0  0  0
  1 25  1  0  0  0  0
  1 26  1  0  0  0  0
  2  3  1  0  0  0  0
  2 27  1  0  0  0  0
  2 28  1  0  0  0  0
  3  4  1  0  0  0  0
  4  5  1  0  0  0  0
  4 10  2  0  0  0  0
  5  6  2  0  0  0  0
  6  7  1  0  0  0  0
  6 13  1  0  0  0  0
  7  8  2  0  0  0  0
  7 29  1  0  0  0  0
  8  9  1  0  0  0  0
  8 10  1  0  0  0  0
  9 30  1  0  0  0  0
  9 31  1  0  0  0  0
 10 11  1  0  0  0  0
 11 12  3  0  0  0  0
 13 14  1  0  0  0  0
 13 32  1  0  0  0  0
 14 15  2  0  0  0  0
 14 16  1  0  0  0  0
 16 17  1  0  0  0  0
 16 33  1  0  0  0  0
 16 34  1  0  0  0  0
 17 18  1  0  0  0  0
 17 21  1  0  0  0  0
 18 19  1  0  0  0  0
 18 35  1  0  0  0  0
 18 36  1  0  0  0  0
 19 20  1  0  0  0  0
 19 37  1  0  0  0  0
 19 38  1  0  0  0  0
 20 39  1  0  0  0  0
 21 22  1  0  0  0  0
 21 40  1  0  0  0  0
 21 41  1  0  0  0  0
 22 23  1  0  0  0  0
 22 42  1  0  0  0  0
 22 43  1  0  0  0  0
 23 44  1  0  0  0  0
 23 45  1  0  0  0  0
 23 46  1  0  0  0  0
M  END
$$$$
jnk1_abbott_32_29
  MOE2024           3D
jnk1_abbott_32_29
 43 44  0  0  0  0  0  0  0  0999 V2000
   19.9200   61.5020    9.2440 C   0  0  0  0  0  0  0  0  0  0  0  0
   20.4670   62.9270    9.3690 C   0  0  0  0  0  0  0  0  0  0  0  0
   19.8720   63.5230   10.5180 O   0  0  0  0  0  0  0  0  0  0  0  0
   20.1370   64.8480   10.8180 C   0  0  0  0  0  0  0  0  0  0  0  0
   20.9830   65.5190    9.9890 N   0  0  0  0  0  0  0  0  0  0  0  0
   21.2750   66.7970   10.2770 C   0  0  0  0  0  0  0  0  0  0  0  0
   20.7280   67.4850   11.3550 C   0  0  0  0  0  0  0  0  0  0  0  0
   19.8640   66.7930   12.1940 C   0  0  0  0  0  0  0  0  0  0  0  0
   19.3690   67.5210   13.2690 N   0  0  0  0  0  0  0  0  0  0  0  0
   19.5580   65.4460   11.9430 C   0  0  0  0  0  0  0  0  0  0  0  0
   18.6860   64.6560   12.8040 C   0  0  0  0  0  0  0  0  0  0  0  0
   17.9960   64.0210   13.4820 N   0  0  0  0  0  0  0  0  0  0  0  0
   22.1610   67.3290    9.3540 N   0  0  0  0  0  0  0  0  0  0  0  0
   22.5970   68.6070    9.1580 C   0  0  0  0  0  0  0  0  0  0  0  0
   23.5750   68.7980    7.9970 C   0  0  0  0  0  0  0  0  0  0  0  0
   22.2200   69.5220    9.8610 O   0  0  0  0  0  0  0  0  0  0  0  0
   22.9750   66.5850    4.3790 C   0  0  0  0  0  0  0  0  0  0  0  0
   24.2670   66.3900    5.1890 C   0  0  0  0  0  0  0  0  0  0  0  0
   24.4930   67.6540    6.0370 C   0  0  0  0  0  0  0  0  0  0  0  0
   23.3280   67.7470    6.9420 N   0  0  0  0  0  0  0  0  0  0  0  0
   22.0990   68.0680    6.1710 C   0  0  0  0  0  0  0  0  0  0  0  0
   21.7900   66.8160    5.3310 C   0  0  0  0  0  0  0  0  0  0  0  0
   20.3600   61.0200    8.3710 H   0  0  0  0  0  0  0  0  0  0  0  0
   18.8370   61.5380    9.1330 H   0  0  0  0  0  0  0  0  0  0  0  0
   20.1760   60.9360   10.1400 H   0  0  0  0  0  0  0  0  0  0  0  0
   20.2120   63.5010    8.4790 H   0  0  0  0  0  0  0  0  0  0  0  0
   21.5500   62.8990    9.4850 H   0  0  0  0  0  0  0  0  0  0  0  0
   20.9680   68.5230   11.5340 H   0  0  0  0  0  0  0  0  0  0  0  0
   18.7470   67.0810   13.9330 H   0  0  0  0  0  0  0  0  0  0  0  0
   19.6320   68.4890   13.3880 H   0  0  0  0  0  0  0  0  0  0  0  0
   22.5540   66.6520    8.7160 H   0  0  0  0  0  0  0  0  0  0  0  0
   24.5960   68.7080    8.3670 H   0  0  0  0  0  0  0  0  0  0  0  0
   23.4310   69.7880    7.5630 H   0  0  0  0  0  0  0  0  0  0  0  0
   22.7870   65.6960    3.7780 H   0  0  0  0  0  0  0  0  0  0  0  0
   23.0860   67.4500    3.7250 H   0  0  0  0  0  0  0  0  0  0  0  0
   25.1090   66.2430    4.5120 H   0  0  0  0  0  0  0  0  0  0  0  0
   24.1680   65.5200    5.8390 H   0  0  0  0  0  0  0  0  0  0  0  0
   24.5470   68.5350    5.3980 H   0  0  0  0  0  0  0  0  0  0  0  0
   25.4140   67.5660    6.6130 H   0  0  0  0  0  0  0  0  0  0  0  0
   22.2730   68.9260    5.5220 H   0  0  0  0  0  0  0  0  0  0  0  0
   21.2730   68.2850    6.8470 H   0  0  0  0  0  0  0  0  0  0  0  0
   21.6660   65.9520    5.9850 H   0  0  0  0  0  0  0  0  0  0  0  0
   20.8770   66.9710    4.7570 H   0  0  0  0  0  0  0  0  0  0  0  0
  1  2  1  0  0  0  0
  1 23  1  0  0  0  0
  1 24  1  0  0  0  0
  1 25  1  0  0  0  0
  2  3  1  0  0  0  0
  2 26  1  0  0  0  0
  2 27  1  0  0  0  0
  3  4  1  0  0  0  0
  4  5  1  0  0  0  0
  4 10  2  0  0  0  0
  5  6  2  0  0  0  0
  6  7  1  0  0  0  0
  6 13  1  0  0  0  0
  7  8  2  0  0  0  0
  7 28  1  0  0  0  0
  8  9  1  0  0  0  0
  8 10  1  0  0  0  0
  9 29  1  0  0  0  0
  9 30  1  0  0  0  0
 10 11  1  0  0  0  0
 11 12  3  0  0  0  0
 13 14  1  0  0  0  0
 13 31  1  0  0  0  0
 14 15  1  0  0  0  0
 14 16  2  0  0  0  0
 15 20  1  0  0  0  0
 15 32  1  0  0  0  0
 15 33  1  0  0  0  0
 17 18  1  0  0  0  0
 17 22  1  0  0  0  0
 17 34  1  0  0  0  0
 17 35  1  0  0  0  0
 18 19  1  0  0  0  0
 18 36  1  0  0  0  0
 18 37  1  0  0  0  0
 19 20  1  0  0  0  0
 19 38  1  0  0  0  0
 19 39  1  0  0  0  0
 20 21  1  0  0  0  0
 21 22  1  0  0  0  0
 21 40  1  0  0  0  0
 21 41  1  0  0  0  0
 22 42  1  0  0  0  0
 22 43  1  0  0  0  0
M  END
$$$$
jnk1_abbott_33_30
  MOE2024           3D
jnk1_abbott_33_30
 41 42  0  0  0  0  0  0  0  0999 V2000
   19.8460   61.5930    8.8530 C   0  0  0  0  0  0  0  0  0  0  0  0
   20.4160   63.0000    9.0540 C   0  0  0  0  0  0  0  0  0  0  0  0
   19.8570   63.5290   10.2530 O   0  0  0  0  0  0  0  0  0  0  0  0
   20.1480   64.8290   10.6290 C   0  0  0  0  0  0  0  0  0  0  0  0
   20.9840   65.5400    9.8250 N   0  0  0  0  0  0  0  0  0  0  0  0
   21.3010   66.7940   10.1850 C   0  0  0  0  0  0  0  0  0  0  0  0
   20.7910   67.4190   11.3180 C   0  0  0  0  0  0  0  0  0  0  0  0
   19.9370   66.6860   12.1320 C   0  0  0  0  0  0  0  0  0  0  0  0
   19.4790   67.3500   13.2640 N   0  0  0  0  0  0  0  0  0  0  0  0
   19.6050   65.3610   11.8050 C   0  0  0  0  0  0  0  0  0  0  0  0
   18.7430   64.5290   12.6350 C   0  0  0  0  0  0  0  0  0  0  0  0
   18.0600   63.8610   13.2890 N   0  0  0  0  0  0  0  0  0  0  0  0
   22.1730   67.3710    9.2760 N   0  0  0  0  0  0  0  0  0  0  0  0
   22.6220   68.6540    9.1500 C   0  0  0  0  0  0  0  0  0  0  0  0
   23.5750   68.9060    7.9810 C   0  0  0  0  0  0  0  0  0  0  0  0
   22.2760   69.5260    9.9190 O   0  0  0  0  0  0  0  0  0  0  0  0
   22.8560   66.9360    4.2460 O   0  0  0  0  0  0  0  0  0  0  0  0
   24.1650   66.6720    5.0090 C   0  0  0  0  0  0  0  0  0  0  0  0
   24.4290   67.8770    5.9300 C   0  0  0  0  0  0  0  0  0  0  0  0
   23.2870   67.9270    6.8670 N   0  0  0  0  0  0  0  0  0  0  0  0
   22.0460   68.3120    6.1480 C   0  0  0  0  0  0  0  0  0  0  0  0
   21.6980   67.1210    5.2390 C   0  0  0  0  0  0  0  0  0  0  0  0
   20.2570   61.1620    7.9400 H   0  0  0  0  0  0  0  0  0  0  0  0
   18.7600   61.6500    8.7710 H   0  0  0  0  0  0  0  0  0  0  0  0
   20.1140   60.9670    9.7040 H   0  0  0  0  0  0  0  0  0  0  0  0
   20.1470   63.6330    8.2090 H   0  0  0  0  0  0  0  0  0  0  0  0
   21.5010   62.9500    9.1410 H   0  0  0  0  0  0  0  0  0  0  0  0
   21.0500   68.4400   11.5560 H   0  0  0  0  0  0  0  0  0  0  0  0
   18.8660   66.8770   13.9130 H   0  0  0  0  0  0  0  0  0  0  0  0
   19.7580   68.3050   13.4370 H   0  0  0  0  0  0  0  0  0  0  0  0
   22.5410   66.7310    8.5860 H   0  0  0  0  0  0  0  0  0  0  0  0
   24.6030   68.7780    8.3180 H   0  0  0  0  0  0  0  0  0  0  0  0
   23.4360   69.9220    7.6130 H   0  0  0  0  0  0  0  0  0  0  0  0
   24.9880   66.5580    4.3030 H   0  0  0  0  0  0  0  0  0  0  0  0
   24.0690   65.7640    5.6050 H   0  0  0  0  0  0  0  0  0  0  0  0
   24.4810   68.7960    5.3460 H   0  0  0  0  0  0  0  0  0  0  0  0
   25.3620   67.7400    6.4760 H   0  0  0  0  0  0  0  0  0  0  0  0
   22.2160   69.2080    5.5510 H   0  0  0  0  0  0  0  0  0  0  0  0
   21.2390   68.4960    6.8580 H   0  0  0  0  0  0  0  0  0  0  0  0
   21.5770   66.2190    5.8400 H   0  0  0  0  0  0  0  0  0  0  0  0
   20.7740   67.3240    4.6980 H   0  0  0  0  0  0  0  0  0  0  0  0
  1  2  1  0  0  0  0
  1 23  1  0  0  0  0
  1 24  1  0  0  0  0
  1 25  1  0  0  0  0
  2  3  1  0  0  0  0
  2 26  1  0  0  0  0
  2 27  1  0  0  0  0
  3  4  1  0  0  0  0
  4  5  1  0  0  0  0
  4 10  2  0  0  0  0
  5  6  2  0  0  0  0
  6  7  1  0  0  0  0
  6 13  1  0  0  0  0
  7  8  2  0  0  0  0
  7 28  1  0  0  0  0
  8  9  1  0  0  0  0
  8 10  1  0  0  0  0
  9 29  1  0  0  0  0
  9 30  1  0  0  0  0
 10 11  1  0  0  0  0
 11 12  3  0  0  0  0
 13 14  1  0  0  0  0
 13 31  1  0  0  0  0
 14 15  1  0  0  0  0
 14 16  2  0  0  0  0
 15 20  1  0  0  0  0
 15 32  1  0  0  0  0
 15 33  1  0  0  0  0
 17 18  1  0  0  0  0
 17 22  1  0  0  0  0
 18 19  1  0  0  0  0
 18 34  1  0  0  0  0
 18 35  1  0  0  0  0
 19 20  1  0  0  0  0
 19 36  1  0  0  0  0
 19 37  1  0  0  0  0
 20 21  1  0  0  0  0
 21 22  1  0  0  0  0
 21 38  1  0  0  0  0
 21 39  1  0  0  0  0
 22 40  1  0  0  0  0
 22 41  1  0  0  0  0
M  END
$$$$
jnk1_abbott_34_31_down
  MOE2024           3D
jnk1_abbott_34_31_down
 44 45  0  0  0  0  0  0  0  0999 V2000
   19.8890   61.4440    9.4010 C   0  0  0  0  0  0  0  0  0  0  0  0
   20.4510   62.8640    9.3550 C   0  0  0  0  0  0  0  0  0  0  0  0
   19.8880   63.5230   10.5110 O   0  0  0  0  0  0  0  0  0  0  0  0
   20.1530   64.8340   10.8140 C   0  0  0  0  0  0  0  0  0  0  0  0
   20.9920   65.5140    9.9860 N   0  0  0  0  0  0  0  0  0  0  0  0
   21.2700   66.7960   10.2730 C   0  0  0  0  0  0  0  0  0  0  0  0
   20.7160   67.4780   11.3510 C   0  0  0  0  0  0  0  0  0  0  0  0
   19.8580   66.7770   12.1890 C   0  0  0  0  0  0  0  0  0  0  0  0
   19.3050   67.4620   13.2680 N   0  0  0  0  0  0  0  0  0  0  0  0
   19.5670   65.4260   11.9390 C   0  0  0  0  0  0  0  0  0  0  0  0
   18.7010   64.6710   12.7950 C   0  0  0  0  0  0  0  0  0  0  0  0
   18.0130   64.0850   13.4970 N   0  0  0  0  0  0  0  0  0  0  0  0
   22.1540   67.3320    9.3520 N   0  0  0  0  0  0  0  0  0  0  0  0
   22.5920   68.6100    9.1630 C   0  0  0  0  0  0  0  0  0  0  0  0
   23.5670   68.8070    8.0010 C   0  0  0  0  0  0  0  0  0  0  0  0
   22.2220   69.5200    9.8740 O   0  0  0  0  0  0  0  0  0  0  0  0
   22.9860   66.6150    4.3950 C   0  0  0  0  0  0  0  0  0  0  0  0
   22.7480   65.4710    3.6130 O   0  0  0  0  0  0  0  0  0  0  0  0
   24.2730   66.4020    5.1950 C   0  0  0  0  0  0  0  0  0  0  0  0
   24.4960   67.6660    6.0420 C   0  0  0  0  0  0  0  0  0  0  0  0
   23.3240   67.7580    6.9370 N   0  0  0  0  0  0  0  0  0  0  0  0
   22.0960   68.0800    6.1660 C   0  0  0  0  0  0  0  0  0  0  0  0
   21.7920   66.8290    5.3280 C   0  0  0  0  0  0  0  0  0  0  0  0
   20.2700   60.8750    8.5530 H   0  0  0  0  0  0  0  0  0  0  0  0
   18.8000   61.4830    9.3530 H   0  0  0  0  0  0  0  0  0  0  0  0
   20.1940   60.9620   10.3300 H   0  0  0  0  0  0  0  0  0  0  0  0
   20.1450   63.3680    8.4390 H   0  0  0  0  0  0  0  0  0  0  0  0
   21.5390   62.8470    9.4150 H   0  0  0  0  0  0  0  0  0  0  0  0
   20.9450   68.5180   11.5310 H   0  0  0  0  0  0  0  0  0  0  0  0
   18.6740   66.9880   13.8980 H   0  0  0  0  0  0  0  0  0  0  0  0
   19.5350   68.4340   13.4210 H   0  0  0  0  0  0  0  0  0  0  0  0
   22.5430   66.6580    8.7070 H   0  0  0  0  0  0  0  0  0  0  0  0
   24.5890   68.7170    8.3690 H   0  0  0  0  0  0  0  0  0  0  0  0
   23.4210   69.7980    7.5710 H   0  0  0  0  0  0  0  0  0  0  0  0
   23.1050   67.4990    3.7680 H   0  0  0  0  0  0  0  0  0  0  0  0
   22.6530   64.7260    4.2100 H   0  0  0  0  0  0  0  0  0  0  0  0
   25.1150   66.2530    4.5180 H   0  0  0  0  0  0  0  0  0  0  0  0
   24.1700   65.5320    5.8440 H   0  0  0  0  0  0  0  0  0  0  0  0
   24.5550   68.5470    5.4020 H   0  0  0  0  0  0  0  0  0  0  0  0
   25.4130   67.5780    6.6240 H   0  0  0  0  0  0  0  0  0  0  0  0
   22.2680   68.9400    5.5180 H   0  0  0  0  0  0  0  0  0  0  0  0
   21.2680   68.2950    6.8420 H   0  0  0  0  0  0  0  0  0  0  0  0
   21.6670   65.9640    5.9790 H   0  0  0  0  0  0  0  0  0  0  0  0
   20.8840   66.9800    4.7450 H   0  0  0  0  0  0  0  0  0  0  0  0
  1  2  1  0  0  0  0
  1 24  1  0  0  0  0
  1 25  1  0  0  0  0
  1 26  1  0  0  0  0
  2  3  1  0  0  0  0
  2 27  1  0  0  0  0
  2 28  1  0  0  0  0
  3  4  1  0  0  0  0
  4  5  1  0  0  0  0
  4 10  2  0  0  0  0
  5  6  2  0  0  0  0
  6  7  1  0  0  0  0
  6 13  1  0  0  0  0
  7  8  2  0  0  0  0
  7 29  1  0  0  0  0
  8  9  1  0  0  0  0
  8 10  1  0  0  0  0
  9 30  1  0  0  0  0
  9 31  1  0  0  0  0
 10 11  1  0  0  0  0
 11 12  3  0  0  0  0
 13 14  1  0  0  0  0
 13 32  1  0  0  0  0
 14 15  1  0  0  0  0
 14 16  2  0  0  0  0
 15 21  1  0  0  0  0
 15 33  1  0  0  0  0
 15 34  1  0  0  0  0
 17 18  1  0  0  0  0
 17 19  1  0  0  0  0
 17 23  1  0  0  0  0
 17 35  1  0  0  0  0
 18 36  1  0  0  0  0
 19 20  1  0  0  0  0
 19 37  1  0  0  0  0
 19 38  1  0  0  0  0
 20 21  1  0  0  0  0
 20 39  1  0  0  0  0
 20 40  1  0  0  0  0
 21 22  1  0  0  0  0
 22 23  1  0  0  0  0
 22 41  1  0  0  0  0
 22 42  1  0  0  0  0
 23 43  1  0  0  0  0
 23 44  1  0  0  0  0
M  END
$$$$
jnk1_abbott_35_33_down
  MOE2024           3D
jnk1_abbott_35_33_down
 59 60  0  0  0  0  0  0  0  0999 V2000
   19.8800   61.5270    9.2890 C   0  0  0  0  0  0  0  0  0  0  0  0
   20.3720   62.9720    9.2400 C   0  0  0  0  0  0  0  0  0  0  0  0
   19.8720   63.5760   10.4560 O   0  0  0  0  0  0  0  0  0  0  0  0
   20.1120   64.8880   10.7760 C   0  0  0  0  0  0  0  0  0  0  0  0
   20.8870   65.6130    9.9250 N   0  0  0  0  0  0  0  0  0  0  0  0
   21.1390   66.8960   10.2290 C   0  0  0  0  0  0  0  0  0  0  0  0
   20.6180   67.5360   11.3480 C   0  0  0  0  0  0  0  0  0  0  0  0
   19.8250   66.7890   12.2110 C   0  0  0  0  0  0  0  0  0  0  0  0
   19.3060   67.4320   13.3310 N   0  0  0  0  0  0  0  0  0  0  0  0
   19.5650   65.4360   11.9430 C   0  0  0  0  0  0  0  0  0  0  0  0
   18.7660   64.6340   12.8210 C   0  0  0  0  0  0  0  0  0  0  0  0
   18.1320   64.0120   13.5420 N   0  0  0  0  0  0  0  0  0  0  0  0
   21.9510   67.4860    9.2740 N   0  0  0  0  0  0  0  0  0  0  0  0
   22.5010   68.7340    9.2030 C   0  0  0  0  0  0  0  0  0  0  0  0
   23.3380   69.0180    7.9540 C   0  0  0  0  0  0  0  0  0  0  0  0
   22.3360   69.5510   10.0840 O   0  0  0  0  0  0  0  0  0  0  0  0
   22.0690   67.3000    4.2260 C   0  0  0  0  0  0  0  0  0  0  0  0
   23.4370   66.9210    4.8330 C   0  0  0  0  0  0  0  0  0  0  0  0
   23.8930   68.0620    5.7610 C   0  0  0  0  0  0  0  0  0  0  0  0
   22.8640   68.1490    6.8120 N   0  0  0  0  0  0  0  0  0  0  0  0
   21.5900   68.6640    6.2590 C   0  0  0  0  0  0  0  0  0  0  0  0
   21.0520   67.5370    5.3640 C   0  0  0  0  0  0  0  0  0  0  0  0
   21.5910   66.2240    3.2380 C   0  0  0  0  0  0  0  0  0  0  0  0
   20.7620   65.3820    3.5660 O   0  0  0  0  0  0  0  0  0  0  0  0
   22.1410   66.2300    2.0210 N   0  0  0  0  0  0  0  0  0  0  0  0
   21.8090   65.2650    0.9810 C   0  0  0  0  0  0  0  0  0  0  0  0
   20.6990   65.8370    0.0970 C   0  0  0  0  0  0  0  0  0  0  0  0
   20.3200   64.8500   -1.0170 C   0  0  0  0  0  0  0  0  0  0  0  0
   19.1920   65.4190   -1.8830 C   0  0  0  0  0  0  0  0  0  0  0  0
   20.2180   60.9980    8.3990 H   0  0  0  0  0  0  0  0  0  0  0  0
   18.7910   61.5150    9.3280 H   0  0  0  0  0  0  0  0  0  0  0  0
   20.2800   61.0370   10.1770 H   0  0  0  0  0  0  0  0  0  0  0  0
   19.9720   63.4840    8.3650 H   0  0  0  0  0  0  0  0  0  0  0  0
   21.4610   63.0060    9.2140 H   0  0  0  0  0  0  0  0  0  0  0  0
   20.8230   68.5790   11.5410 H   0  0  0  0  0  0  0  0  0  0  0  0
   18.7220   66.9240   13.9800 H   0  0  0  0  0  0  0  0  0  0  0  0
   19.5130   68.4070   13.4950 H   0  0  0  0  0  0  0  0  0  0  0  0
   22.1760   66.8880    8.4920 H   0  0  0  0  0  0  0  0  0  0  0  0
   24.3860   68.8010    8.1630 H   0  0  0  0  0  0  0  0  0  0  0  0
   23.2330   70.0670    7.6780 H   0  0  0  0  0  0  0  0  0  0  0  0
   22.1660   68.2250    3.6580 H   0  0  0  0  0  0  0  0  0  0  0  0
   24.1670   66.7810    4.0360 H   0  0  0  0  0  0  0  0  0  0  0  0
   23.3420   65.9970    5.4050 H   0  0  0  0  0  0  0  0  0  0  0  0
   23.9540   69.0000    5.2090 H   0  0  0  0  0  0  0  0  0  0  0  0
   24.8650   67.8320    6.1970 H   0  0  0  0  0  0  0  0  0  0  0  0
   21.7660   69.5660    5.6720 H   0  0  0  0  0  0  0  0  0  0  0  0
   20.8860   68.8840    7.0610 H   0  0  0  0  0  0  0  0  0  0  0  0
   20.9340   66.6260    5.9500 H   0  0  0  0  0  0  0  0  0  0  0  0
   20.0890   67.8270    4.9450 H   0  0  0  0  0  0  0  0  0  0  0  0
   22.8240   66.9440    1.8090 H   0  0  0  0  0  0  0  0  0  0  0  0
   21.4670   64.3380    1.4410 H   0  0  0  0  0  0  0  0  0  0  0  0
   22.6920   65.0650    0.3750 H   0  0  0  0  0  0  0  0  0  0  0  0
   21.0460   66.7670   -0.3530 H   0  0  0  0  0  0  0  0  0  0  0  0
   19.8210   66.0360    0.7110 H   0  0  0  0  0  0  0  0  0  0  0  0
   19.9890   63.9140   -0.5680 H   0  0  0  0  0  0  0  0  0  0  0  0
   21.1930   64.6640   -1.6430 H   0  0  0  0  0  0  0  0  0  0  0  0
   18.3170   65.6060   -1.2630 H   0  0  0  0  0  0  0  0  0  0  0  0
   18.9370   64.7020   -2.6640 H   0  0  0  0  0  0  0  0  0  0  0  0
   19.5210   66.3520   -2.3400 H   0  0  0  0  0  0  0  0  0  0  0  0
  1  2  1  0  0  0  0
  1 30  1  0  0  0  0
  1 31  1  0  0  0  0
  1 32  1  0  0  0  0
  2  3  1  0  0  0  0
  2 33  1  0  0  0  0
  2 34  1  0  0  0  0
  3  4  1  0  0  0  0
  4  5  1  0  0  0  0
  4 10  2  0  0  0  0
  5  6  2  0  0  0  0
  6  7  1  0  0  0  0
  6 13  1  0  0  0  0
  7  8  2  0  0  0  0
  7 35  1  0  0  0  0
  8  9  1  0  0  0  0
  8 10  1  0  0  0  0
  9 36  1  0  0  0  0
  9 37  1  0  0  0  0
 10 11  1  0  0  0  0
 11 12  3  0  0  0  0
 13 14  1  0  0  0  0
 13 38  1  0  0  0  0
 14 15  1  0  0  0  0
 14 16  2  0  0  0  0
 15 20  1  0  0  0  0
 15 39  1  0  0  0  0
 15 40  1  0  0  0  0
 17 18  1  0  0  0  0
 17 22  1  0  0  0  0
 17 23  1  0  0  0  0
 17 41  1  0  0  0  0
 18 19  1  0  0  0  0
 18 42  1  0  0  0  0
 18 43  1  0  0  0  0
 19 20  1  0  0  0  0
 19 44  1  0  0  0  0
 19 45  1  0  0  0  0
 20 21  1  0  0  0  0
 21 22  1  0  0  0  0
 21 46  1  0  0  0  0
 21 47  1  0  0  0  0
 22 48  1  0  0  0  0
 22 49  1  0  0  0  0
 23 24  2  0  0  0  0
 23 25  1  0  0  0  0
 25 26  1  0  0  0  0
 25 50  1  0  0  0  0
 26 27  1  0  0  0  0
 26 51  1  0  0  0  0
 26 52  1  0  0  0  0
 27 28  1  0  0  0  0
 27 53  1  0  0  0  0
 27 54  1  0  0  0  0
 28 29  1  0  0  0  0
 28 55  1  0  0  0  0
 28 56  1  0  0  0  0
 29 57  1  0  0  0  0
 29 58  1  0  0  0  0
 29 59  1  0  0  0  0
M  END
$$$$
jnk1_abbott_36_34_down
  MOE2024           3D
jnk1_abbott_36_34_down
 56 57  0  0  0  0  0  0  0  0999 V2000
   19.8440   61.5440    9.2590 C   0  0  0  0  0  0  0  0  0  0  0  0
   20.3730   62.9770    9.2350 C   0  0  0  0  0  0  0  0  0  0  0  0
   19.8730   63.5780   10.4530 O   0  0  0  0  0  0  0  0  0  0  0  0
   20.1240   64.8860   10.7820 C   0  0  0  0  0  0  0  0  0  0  0  0
   20.9140   65.6050    9.9410 N   0  0  0  0  0  0  0  0  0  0  0  0
   21.1760   66.8850   10.2510 C   0  0  0  0  0  0  0  0  0  0  0  0
   20.6510   67.5260   11.3680 C   0  0  0  0  0  0  0  0  0  0  0  0
   19.8430   66.7840   12.2200 C   0  0  0  0  0  0  0  0  0  0  0  0
   19.3190   67.4290   13.3380 N   0  0  0  0  0  0  0  0  0  0  0  0
   19.5710   65.4340   11.9450 C   0  0  0  0  0  0  0  0  0  0  0  0
   18.7560   64.6380   12.8130 C   0  0  0  0  0  0  0  0  0  0  0  0
   18.1090   64.0190   13.5250 N   0  0  0  0  0  0  0  0  0  0  0  0
   21.9910   67.4720    9.2970 N   0  0  0  0  0  0  0  0  0  0  0  0
   22.5030   68.7340    9.2040 C   0  0  0  0  0  0  0  0  0  0  0  0
   23.3150   69.0260    7.9410 C   0  0  0  0  0  0  0  0  0  0  0  0
   22.3220   69.5600   10.0750 O   0  0  0  0  0  0  0  0  0  0  0  0
   22.0210   67.2910    4.2320 C   0  0  0  0  0  0  0  0  0  0  0  0
   23.4180   66.9640    4.8010 C   0  0  0  0  0  0  0  0  0  0  0  0
   23.8460   68.1130    5.7300 C   0  0  0  0  0  0  0  0  0  0  0  0
   22.8440   68.1420    6.8100 N   0  0  0  0  0  0  0  0  0  0  0  0
   21.5330   68.6040    6.2950 C   0  0  0  0  0  0  0  0  0  0  0  0
   21.0230   67.4660    5.3980 C   0  0  0  0  0  0  0  0  0  0  0  0
   21.5690   66.2110    3.2350 C   0  0  0  0  0  0  0  0  0  0  0  0
   20.7370   65.3650    3.5470 O   0  0  0  0  0  0  0  0  0  0  0  0
   22.1470   66.2260    2.0330 N   0  0  0  0  0  0  0  0  0  0  0  0
   21.8640   65.2740    0.9810 C   0  0  0  0  0  0  0  0  0  0  0  0
   23.1580   64.5530    0.6190 C   0  0  0  0  0  0  0  0  0  0  0  0
   21.2930   66.0300   -0.2140 C   0  0  0  0  0  0  0  0  0  0  0  0
   20.1800   61.0180    8.3660 H   0  0  0  0  0  0  0  0  0  0  0  0
   18.7540   61.5600    9.2830 H   0  0  0  0  0  0  0  0  0  0  0  0
   20.2200   61.0330   10.1450 H   0  0  0  0  0  0  0  0  0  0  0  0
   19.9970   63.5100    8.3620 H   0  0  0  0  0  0  0  0  0  0  0  0
   21.4630   62.9840    9.2240 H   0  0  0  0  0  0  0  0  0  0  0  0
   20.8640   68.5660   11.5660 H   0  0  0  0  0  0  0  0  0  0  0  0
   18.7240   66.9240   13.9800 H   0  0  0  0  0  0  0  0  0  0  0  0
   19.5330   68.4010   13.5080 H   0  0  0  0  0  0  0  0  0  0  0  0
   22.2510   66.8600    8.5370 H   0  0  0  0  0  0  0  0  0  0  0  0
   24.3700   68.8320    8.1360 H   0  0  0  0  0  0  0  0  0  0  0  0
   23.1840   70.0720    7.6610 H   0  0  0  0  0  0  0  0  0  0  0  0
   22.0610   68.2280    3.6770 H   0  0  0  0  0  0  0  0  0  0  0  0
   24.1340   66.8650    3.9840 H   0  0  0  0  0  0  0  0  0  0  0  0
   23.3780   66.0310    5.3630 H   0  0  0  0  0  0  0  0  0  0  0  0
   23.8490   69.0590    5.1880 H   0  0  0  0  0  0  0  0  0  0  0  0
   24.8390   67.9240    6.1370 H   0  0  0  0  0  0  0  0  0  0  0  0
   21.6510   69.5210    5.7170 H   0  0  0  0  0  0  0  0  0  0  0  0
   20.8400   68.7800    7.1180 H   0  0  0  0  0  0  0  0  0  0  0  0
   20.9620   66.5420    5.9730 H   0  0  0  0  0  0  0  0  0  0  0  0
   20.0370   67.7160    5.0070 H   0  0  0  0  0  0  0  0  0  0  0  0
   22.8280   66.9490    1.8450 H   0  0  0  0  0  0  0  0  0  0  0  0
   21.1330   64.5320    1.3020 H   0  0  0  0  0  0  0  0  0  0  0  0
   23.9020   65.2810    0.2960 H   0  0  0  0  0  0  0  0  0  0  0  0
   22.9670   63.8460   -0.1880 H   0  0  0  0  0  0  0  0  0  0  0  0
   23.5310   64.0160    1.4920 H   0  0  0  0  0  0  0  0  0  0  0  0
   22.0120   66.7780   -0.5490 H   0  0  0  0  0  0  0  0  0  0  0  0
   20.3650   66.5230    0.0770 H   0  0  0  0  0  0  0  0  0  0  0  0
   21.0930   65.3300   -1.0250 H   0  0  0  0  0  0  0  0  0  0  0  0
  1  2  1  0  0  0  0
  1 29  1  0  0  0  0
  1 30  1  0  0  0  0
  1 31  1  0  0  0  0
  2  3  1  0  0  0  0
  2 32  1  0  0  0  0
  2 33  1  0  0  0  0
  3  4  1  0  0  0  0
  4  5  1  0  0  0  0
  4 10  2  0  0  0  0
  5  6  2  0  0  0  0
  6  7  1  0  0  0  0
  6 13  1  0  0  0  0
  7  8  2  0  0  0  0
  7 34  1  0  0  0  0
  8  9  1  0  0  0  0
  8 10  1  0  0  0  0
  9 35  1  0  0  0  0
  9 36  1  0  0  0  0
 10 11  1  0  0  0  0
 11 12  3  0  0  0  0
 13 14  1  0  0  0  0
 13 37  1  0  0  0  0
 14 15  1  0  0  0  0
 14 16  2  0  0  0  0
 15 20  1  0  0  0  0
 15 38  1  0  0  0  0
 15 39  1  0  0  0  0
 17 18  1  0  0  0  0
 17 22  1  0  0  0  0
 17 23  1  0  0  0  0
 17 40  1  0  0  0  0
 18 19  1  0  0  0  0
 18 41  1  0  0  0  0
 18 42  1  0  0  0  0
 19 20  1  0  0  0  0
 19 43  1  0  0  0  0
 19 44  1  0  0  0  0
 20 21  1  0  0  0  0
 21 22  1  0  0  0  0
 21 45  1  0  0  0  0
 21 46  1  0  0  0  0
 22 47  1  0  0  0  0
 22 48  1  0  0  0  0
 23 24  2  0  0  0  0
 23 25  1  0  0  0  0
 25 26  1  0  0  0  0
 25 49  1  0  0  0  0
 26 27  1  0  0  0  0
 26 28  1  0  0  0  0
 26 50  1  0  0  0  0
 27 51  1  0  0  0  0
 27 52  1  0  0  0  0
 27 53  1  0  0  0  0
 28 54  1  0  0  0  0
 28 55  1  0  0  0  0
 28 56  1  0  0  0  0
M  END
$$$$
jnk1_abbott_37_17
  MOE2024           3D
jnk1_abbott_37_17
 39 40  0  0  0  0  0  0  0  0999 V2000
   20.0780   64.9330   10.7660 C   0  0  0  0  0  0  0  0  0  0  0  0
   19.6910   63.0260   10.3790 Br  0  0  0  0  0  0  0  0  0  0  0  0
   20.8610   65.6320    9.9000 N   0  0  0  0  0  0  0  0  0  0  0  0
   21.1250   66.9180   10.1760 C   0  0  0  0  0  0  0  0  0  0  0  0
   20.6030   67.5800   11.2780 C   0  0  0  0  0  0  0  0  0  0  0  0
   19.8090   66.8670   12.1580 C   0  0  0  0  0  0  0  0  0  0  0  0
   19.3430   67.5770   13.2590 N   0  0  0  0  0  0  0  0  0  0  0  0
   19.5350   65.5110   11.9190 C   0  0  0  0  0  0  0  0  0  0  0  0
   18.7320   64.6920   12.8190 C   0  0  0  0  0  0  0  0  0  0  0  0
   18.0960   64.0340   13.5280 N   0  0  0  0  0  0  0  0  0  0  0  0
   21.9670   67.4590    9.2250 N   0  0  0  0  0  0  0  0  0  0  0  0
   22.6570   68.6030    9.2300 C   0  0  0  0  0  0  0  0  0  0  0  0
   22.6560   69.4170   10.1500 O   0  0  0  0  0  0  0  0  0  0  0  0
   23.5630   68.8380    8.0270 C   0  0  0  0  0  0  0  0  0  0  0  0
   22.8240   68.8500    6.6910 C   0  0  0  0  0  0  0  0  0  0  0  0
   22.5060   67.6490    6.0400 C   0  0  0  0  0  0  0  0  0  0  0  0
   22.8440   66.4680    6.6770 O   0  0  0  0  0  0  0  0  0  0  0  0
   22.3800   65.2260    6.1510 C   0  0  0  0  0  0  0  0  0  0  0  0
   21.8730   67.7080    4.7920 C   0  0  0  0  0  0  0  0  0  0  0  0
   21.5320   68.9340    4.2220 C   0  0  0  0  0  0  0  0  0  0  0  0
   21.8230   70.1340    4.8790 C   0  0  0  0  0  0  0  0  0  0  0  0
   22.4770   70.0780    6.1170 C   0  0  0  0  0  0  0  0  0  0  0  0
   21.4320   71.3140    4.2730 O   0  0  0  0  0  0  0  0  0  0  0  0
   22.0560   72.5350    4.6600 C   0  0  0  0  0  0  0  0  0  0  0  0
   20.8120   68.6260   11.4450 H   0  0  0  0  0  0  0  0  0  0  0  0
   18.7680   67.1170   13.9500 H   0  0  0  0  0  0  0  0  0  0  0  0
   19.5800   68.5530   13.3670 H   0  0  0  0  0  0  0  0  0  0  0  0
   22.0800   66.9000    8.3920 H   0  0  0  0  0  0  0  0  0  0  0  0
   24.3100   68.0450    7.9990 H   0  0  0  0  0  0  0  0  0  0  0  0
   24.0590   69.8010    8.1540 H   0  0  0  0  0  0  0  0  0  0  0  0
   22.7400   64.4100    6.7770 H   0  0  0  0  0  0  0  0  0  0  0  0
   22.7540   65.0990    5.1360 H   0  0  0  0  0  0  0  0  0  0  0  0
   21.2900   65.2210    6.1400 H   0  0  0  0  0  0  0  0  0  0  0  0
   21.6460   66.7930    4.2650 H   0  0  0  0  0  0  0  0  0  0  0  0
   21.0380   68.9570    3.2620 H   0  0  0  0  0  0  0  0  0  0  0  0
   22.7170   70.9950    6.6350 H   0  0  0  0  0  0  0  0  0  0  0  0
   21.6300   73.3580    4.0860 H   0  0  0  0  0  0  0  0  0  0  0  0
   23.1270   72.4740    4.4670 H   0  0  0  0  0  0  0  0  0  0  0  0
   21.8880   72.7080    5.7230 H   0  0  0  0  0  0  0  0  0  0  0  0
  1  2  1  0  0  0  0
  1  3  1  0  0  0  0
  1  8  2  0  0  0  0
  3  4  2  0  0  0  0
  4  5  1  0  0  0  0
  4 11  1  0  0  0  0
  5  6  2  0  0  0  0
  5 25  1  0  0  0  0
  6  7  1  0  0  0  0
  6  8  1  0  0  0  0
  7 26  1  0  0  0  0
  7 27  1  0  0  0  0
  8  9  1  0  0  0  0
  9 10  3  0  0  0  0
 11 12  1  0  0  0  0
 11 28  1  0  0  0  0
 12 13  2  0  0  0  0
 12 14  1  0  0  0  0
 14 15  1  0  0  0  0
 14 29  1  0  0  0  0
 14 30  1  0  0  0  0
 15 16  1  0  0  0  0
 15 22  2  0  0  0  0
 16 17  1  0  0  0  0
 16 19  2  0  0  0  0
 17 18  1  0  0  0  0
 18 31  1  0  0  0  0
 18 32  1  0  0  0  0
 18 33  1  0  0  0  0
 19 20  1  0  0  0  0
 19 34  1  0  0  0  0
 20 21  2  0  0  0  0
 20 35  1  0  0  0  0
 21 22  1  0  0  0  0
 21 23  1  0  0  0  0
 22 36  1  0  0  0  0
 23 24  1  0  0  0  0
 24 37  1  0  0  0  0
 24 38  1  0  0  0  0
 24 39  1  0  0  0  0
M  END
$$$$
jnk1_abbott_38_18a
  MOE2024           3D
jnk1_abbott_38_18a
 31 31  0  0  0  0  0  0  0  0999 V2000
   20.3260   63.1640    8.1820 C   0  0  0  0  0  0  0  0  0  0  0  0
   20.7530   62.7930    9.6070 C   0  0  0  0  0  0  0  0  0  0  0  0
   22.2760   62.8360    9.8040 C   0  0  0  0  0  0  0  0  0  0  0  0
   20.0140   63.4890   10.6220 O   0  0  0  0  0  0  0  0  0  0  0  0
   20.1180   64.8550   10.8330 C   0  0  0  0  0  0  0  0  0  0  0  0
   20.8630   65.5700    9.9550 N   0  0  0  0  0  0  0  0  0  0  0  0
   21.0300   66.8780   10.1580 C   0  0  0  0  0  0  0  0  0  0  0  0
   20.4450   67.5610   11.2150 C   0  0  0  0  0  0  0  0  0  0  0  0
   19.6780   66.8380   12.1140 C   0  0  0  0  0  0  0  0  0  0  0  0
   19.1450   67.5660   13.1710 N   0  0  0  0  0  0  0  0  0  0  0  0
   19.4960   65.4550   11.9360 C   0  0  0  0  0  0  0  0  0  0  0  0
   18.7150   64.6330   12.8530 C   0  0  0  0  0  0  0  0  0  0  0  0
   18.0940   63.9740   13.5750 N   0  0  0  0  0  0  0  0  0  0  0  0
   21.8500   67.4020    9.1840 N   0  0  0  0  0  0  0  0  0  0  0  0
   22.5260   68.5500    9.1570 C   0  0  0  0  0  0  0  0  0  0  0  0
   22.5100   69.3820   10.0590 O   0  0  0  0  0  0  0  0  0  0  0  0
   23.4370   68.7580    7.9530 C   0  0  0  0  0  0  0  0  0  0  0  0
   20.9250   62.6010    7.4650 H   0  0  0  0  0  0  0  0  0  0  0  0
   20.4770   64.2310    8.0230 H   0  0  0  0  0  0  0  0  0  0  0  0
   19.2730   62.9210    8.0430 H   0  0  0  0  0  0  0  0  0  0  0  0
   20.4790   61.7470    9.7390 H   0  0  0  0  0  0  0  0  0  0  0  0
   22.6290   63.8610    9.6860 H   0  0  0  0  0  0  0  0  0  0  0  0
   22.7560   62.1990    9.0610 H   0  0  0  0  0  0  0  0  0  0  0  0
   22.5240   62.4790   10.8030 H   0  0  0  0  0  0  0  0  0  0  0  0
   20.5850   68.6250   11.3340 H   0  0  0  0  0  0  0  0  0  0  0  0
   18.5860   67.1020   13.8730 H   0  0  0  0  0  0  0  0  0  0  0  0
   19.3160   68.5590   13.2370 H   0  0  0  0  0  0  0  0  0  0  0  0
   21.9550   66.8260    8.3610 H   0  0  0  0  0  0  0  0  0  0  0  0
   23.3190   67.9250    7.2600 H   0  0  0  0  0  0  0  0  0  0  0  0
   24.4730   68.8100    8.2860 H   0  0  0  0  0  0  0  0  0  0  0  0
   23.1690   69.6880    7.4520 H   0  0  0  0  0  0  0  0  0  0  0  0
  1  2  1  0  0  0  0
  1 18  1  0  0  0  0
  1 19  1  0  0  0  0
  1 20  1  0  0  0  0
  2  3  1  0  0  0  0
  2  4  1  0  0  0  0
  2 21  1  0  0  0  0
  3 22  1  0  0  0  0
  3 23  1  0  0  0  0
  3 24  1  0  0  0  0
  4  5  1  0  0  0  0
  5  6  1  0  0  0  0
  5 11  2  0  0  0  0
  6  7  2  0  0  0  0
  7  8  1  0  0  0  0
  7 14  1  0  0  0  0
  8  9  2  0  0  0  0
  8 25  1  0  0  0  0
  9 10  1  0  0  0  0
  9 11  1  0  0  0  0
 10 26  1  0  0  0  0
 10 27  1  0  0  0  0
 11 12  1  0  0  0  0
 12 13  3  0  0  0  0
 14 15  1  0  0  0  0
 14 28  1  0  0  0  0
 15 16  2  0  0  0  0
 15 17  1  0  0  0  0
 17 29  1  0  0  0  0
 17 30  1  0  0  0  0
 17 31  1  0  0  0  0
M  END
$$$$
jnk1_abbott_39_18b
  MOE2024           3D
jnk1_abbott_39_18b
 55 56  0  0  0  0  0  0  0  0999 V2000
   20.2430   63.2980    8.0760 C   0  0  0  0  0  0  0  0  0  0  0  0
   20.6620   62.8660    9.4870 C   0  0  0  0  0  0  0  0  0  0  0  0
   22.1860   62.8460    9.6760 C   0  0  0  0  0  0  0  0  0  0  0  0
   19.9540   63.5550   10.5270 O   0  0  0  0  0  0  0  0  0  0  0  0
   20.1100   64.9100   10.7820 C   0  0  0  0  0  0  0  0  0  0  0  0
   20.8760   65.6240    9.9230 N   0  0  0  0  0  0  0  0  0  0  0  0
   21.0930   66.9180   10.1670 C   0  0  0  0  0  0  0  0  0  0  0  0
   20.5390   67.5870   11.2490 C   0  0  0  0  0  0  0  0  0  0  0  0
   19.7500   66.8640   12.1280 C   0  0  0  0  0  0  0  0  0  0  0  0
   19.2480   67.5780   13.2110 N   0  0  0  0  0  0  0  0  0  0  0  0
   19.5150   65.4960   11.9070 C   0  0  0  0  0  0  0  0  0  0  0  0
   18.7070   64.6740   12.8010 C   0  0  0  0  0  0  0  0  0  0  0  0
   18.0660   64.0160   13.5050 N   0  0  0  0  0  0  0  0  0  0  0  0
   21.9280   67.4420    9.2050 N   0  0  0  0  0  0  0  0  0  0  0  0
   22.6470   68.5640    9.2120 C   0  0  0  0  0  0  0  0  0  0  0  0
   22.6650   69.3670   10.1400 O   0  0  0  0  0  0  0  0  0  0  0  0
   23.5590   68.7770    8.0100 C   0  0  0  0  0  0  0  0  0  0  0  0
   22.8260   68.8050    6.6730 C   0  0  0  0  0  0  0  0  0  0  0  0
   22.5070   67.6120    6.0060 C   0  0  0  0  0  0  0  0  0  0  0  0
   22.8410   66.4220    6.6310 O   0  0  0  0  0  0  0  0  0  0  0  0
   22.6310   65.1860    5.9510 C   0  0  0  0  0  0  0  0  0  0  0  0
   21.8740   67.6860    4.7580 C   0  0  0  0  0  0  0  0  0  0  0  0
   21.5430   68.9230    4.1980 C   0  0  0  0  0  0  0  0  0  0  0  0
   20.7490   68.9640    2.5850 S   0  0  0  0  0  0  0  0  0  0  0  0
   19.6410   69.9330    2.6260 O   0  0  0  0  0  0  0  0  0  0  0  0
   20.4790   67.5820    2.1580 O   0  0  0  0  0  0  0  0  0  0  0  0
   22.0490   69.6380    1.4740 C   0  0  0  0  0  0  0  0  0  0  0  0
   21.8520   70.1170    4.8620 C   0  0  0  0  0  0  0  0  0  0  0  0
   22.4970   70.0380    6.1030 C   0  0  0  0  0  0  0  0  0  0  0  0
   21.5040   71.3130    4.2650 O   0  0  0  0  0  0  0  0  0  0  0  0
   22.1560   72.5160    4.6640 C   0  0  0  0  0  0  0  0  0  0  0  0
   20.8180   62.7370    7.3390 H   0  0  0  0  0  0  0  0  0  0  0  0
   20.4330   64.3640    7.9510 H   0  0  0  0  0  0  0  0  0  0  0  0
   19.1810   63.1000    7.9360 H   0  0  0  0  0  0  0  0  0  0  0  0
   20.3490   61.8260    9.5860 H   0  0  0  0  0  0  0  0  0  0  0  0
   22.5760   63.8600    9.5900 H   0  0  0  0  0  0  0  0  0  0  0  0
   22.6390   62.2160    8.9110 H   0  0  0  0  0  0  0  0  0  0  0  0
   22.4250   62.4480   10.6620 H   0  0  0  0  0  0  0  0  0  0  0  0
   20.7180   68.6410   11.4010 H   0  0  0  0  0  0  0  0  0  0  0  0
   18.6750   67.1130   13.9000 H   0  0  0  0  0  0  0  0  0  0  0  0
   19.4570   68.5610   13.3070 H   0  0  0  0  0  0  0  0  0  0  0  0
   22.0080   66.8890    8.3640 H   0  0  0  0  0  0  0  0  0  0  0  0
   24.2880   67.9670    7.9850 H   0  0  0  0  0  0  0  0  0  0  0  0
   24.0760   69.7280    8.1370 H   0  0  0  0  0  0  0  0  0  0  0  0
   22.9490   64.3620    6.5910 H   0  0  0  0  0  0  0  0  0  0  0  0
   23.2120   65.1750    5.0290 H   0  0  0  0  0  0  0  0  0  0  0  0
   21.5730   65.0760    5.7160 H   0  0  0  0  0  0  0  0  0  0  0  0
   21.6400   66.7770    4.2230 H   0  0  0  0  0  0  0  0  0  0  0  0
   22.2750   70.6650    1.7610 H   0  0  0  0  0  0  0  0  0  0  0  0
   21.6920   69.6200    0.4440 H   0  0  0  0  0  0  0  0  0  0  0  0
   22.9490   69.0300    1.5570 H   0  0  0  0  0  0  0  0  0  0  0  0
   22.7450   70.9480    6.6300 H   0  0  0  0  0  0  0  0  0  0  0  0
   21.7570   73.3530    4.0910 H   0  0  0  0  0  0  0  0  0  0  0  0
   23.2260   72.4270    4.4800 H   0  0  0  0  0  0  0  0  0  0  0  0
   21.9820   72.6880    5.7260 H   0  0  0  0  0  0  0  0  0  0  0  0
  1  2  1  0  0  0  0
  1 32  1  0  0  0  0
  1 33  1  0  0  0  0
  1 34  1  0  0  0  0
  2  3  1  0  0  0  0
  2  4  1  0  0  0  0
  2 35  1  0  0  0  0
  3 36  1  0  0  0  0
  3 37  1  0  0  0  0
  3 38  1  0  0  0  0
  4  5  1  0  0  0  0
  5  6  1  0  0  0  0
  5 11  2  0  0  0  0
  6  7  2  0  0  0  0
  7  8  1  0  0  0  0
  7 14  1  0  0  0  0
  8  9  2  0  0  0  0
  8 39  1  0  0  0  0
  9 10  1  0  0  0  0
  9 11  1  0  0  0  0
 10 40  1  0  0  0  0
 10 41  1  0  0  0  0
 11 12  1  0  0  0  0
 12 13  3  0  0  0  0
 14 15  1  0  0  0  0
 14 42  1  0  0  0  0
 15 16  2  0  0  0  0
 15 17  1  0  0  0  0
 17 18  1  0  0  0  0
 17 43  1  0  0  0  0
 17 44  1  0  0  0  0
 18 19  1  0  0  0  0
 18 29  2  0  0  0  0
 19 20  1  0  0  0  0
 19 22  2  0  0  0  0
 20 21  1  0  0  0  0
 21 45  1  0  0  0  0
 21 46  1  0  0  0  0
 21 47  1  0  0  0  0
 22 23  1  0  0  0  0
 22 48  1  0  0  0  0
 23 24  1  0  0  0  0
 23 28  2  0  0  0  0
 24 25  2  0  0  0  0
 24 26  2  0  0  0  0
 24 27  1  0  0  0  0
 27 49  1  0  0  0  0
 27 50  1  0  0  0  0
 27 51  1  0  0  0  0
 28 29  1  0  0  0  0
 28 30  1  0  0  0  0
 29 52  1  0  0  0  0
 30 31  1  0  0  0  0
 31 53  1  0  0  0  0
 31 54  1  0  0  0  0
 31 55  1  0  0  0  0
M  END
$$$$
jnk1_abbott_40_19a
  MOE2024           3D
jnk1_abbott_40_19a
 36 36  0  0  0  0  0  0  0  0999 V2000
   19.9640   62.8610    8.3320 C   0  0  0  0  0  0  0  0  0  0  0  0
   20.8030   62.7170    9.6120 C   0  0  0  0  0  0  0  0  0  0  0  0
   20.0970   63.4580   10.6510 O   0  0  0  0  0  0  0  0  0  0  0  0
   20.2060   64.8130   10.8460 C   0  0  0  0  0  0  0  0  0  0  0  0
   20.9720   65.5200    9.9800 N   0  0  0  0  0  0  0  0  0  0  0  0
   21.1150   66.8340   10.1620 C   0  0  0  0  0  0  0  0  0  0  0  0
   20.4840   67.5300   11.1830 C   0  0  0  0  0  0  0  0  0  0  0  0
   19.6950   66.8150   12.0690 C   0  0  0  0  0  0  0  0  0  0  0  0
   19.0670   67.5190   13.0930 N   0  0  0  0  0  0  0  0  0  0  0  0
   19.5370   65.4260   11.9130 C   0  0  0  0  0  0  0  0  0  0  0  0
   18.7300   64.6540   12.8110 C   0  0  0  0  0  0  0  0  0  0  0  0
   18.0870   64.0560   13.5440 N   0  0  0  0  0  0  0  0  0  0  0  0
   21.9450   67.3880    9.1960 N   0  0  0  0  0  0  0  0  0  0  0  0
   22.5490   68.6110    9.1770 C   0  0  0  0  0  0  0  0  0  0  0  0
   22.4150   69.3970   10.0850 O   0  0  0  0  0  0  0  0  0  0  0  0
   23.4020   68.9100    7.9760 C   0  0  0  0  0  0  0  0  0  0  0  0
   20.6510   62.0600    7.2870 N   0  0  0  0  0  0  0  0  0  0  0  0
   21.7180   62.8440    6.6320 C   0  0  0  0  0  0  0  0  0  0  0  0
   19.6780   61.6110    6.2770 C   0  0  0  0  0  0  0  0  0  0  0  0
   19.9120   63.9070    8.0310 H   0  0  0  0  0  0  0  0  0  0  0  0
   18.9570   62.4790    8.4970 H   0  0  0  0  0  0  0  0  0  0  0  0
   21.7980   63.1360    9.4610 H   0  0  0  0  0  0  0  0  0  0  0  0
   20.8900   61.6670    9.8910 H   0  0  0  0  0  0  0  0  0  0  0  0
   20.6060   68.5980   11.2850 H   0  0  0  0  0  0  0  0  0  0  0  0
   18.4760   67.0320   13.7520 H   0  0  0  0  0  0  0  0  0  0  0  0
   19.2020   68.5160   13.1760 H   0  0  0  0  0  0  0  0  0  0  0  0
   22.1270   66.8020    8.3930 H   0  0  0  0  0  0  0  0  0  0  0  0
   23.3750   68.0620    7.2910 H   0  0  0  0  0  0  0  0  0  0  0  0
   24.4300   69.0870    8.2940 H   0  0  0  0  0  0  0  0  0  0  0  0
   23.0210   69.7970    7.4710 H   0  0  0  0  0  0  0  0  0  0  0  0
   22.4380   63.1760    7.3800 H   0  0  0  0  0  0  0  0  0  0  0  0
   21.2810   63.7120    6.1390 H   0  0  0  0  0  0  0  0  0  0  0  0
   22.2240   62.2230    5.8920 H   0  0  0  0  0  0  0  0  0  0  0  0
   18.8920   61.0320    6.7610 H   0  0  0  0  0  0  0  0  0  0  0  0
   20.1830   60.9890    5.5370 H   0  0  0  0  0  0  0  0  0  0  0  0
   19.2400   62.4780    5.7830 H   0  0  0  0  0  0  0  0  0  0  0  0
  1  2  1  0  0  0  0
  1 17  1  0  0  0  0
  1 20  1  0  0  0  0
  1 21  1  0  0  0  0
  2  3  1  0  0  0  0
  2 22  1  0  0  0  0
  2 23  1  0  0  0  0
  3  4  1  0  0  0  0
  4  5  1  0  0  0  0
  4 10  2  0  0  0  0
  5  6  2  0  0  0  0
  6  7  1  0  0  0  0
  6 13  1  0  0  0  0
  7  8  2  0  0  0  0
  7 24  1  0  0  0  0
  8  9  1  0  0  0  0
  8 10  1  0  0  0  0
  9 25  1  0  0  0  0
  9 26  1  0  0  0  0
 10 11  1  0  0  0  0
 11 12  3  0  0  0  0
 13 14  1  0  0  0  0
 13 27  1  0  0  0  0
 14 15  2  0  0  0  0
 14 16  1  0  0  0  0
 16 28  1  0  0  0  0
 16 29  1  0  0  0  0
 16 30  1  0  0  0  0
 17 18  1  0  0  0  0
 17 19  1  0  0  0  0
 18 31  1  0  0  0  0
 18 32  1  0  0  0  0
 18 33  1  0  0  0  0
 19 34  1  0  0  0  0
 19 35  1  0  0  0  0
 19 36  1  0  0  0  0
M  END
$$$$
jnk1_abbott_41_19b
  MOE2024           3D
jnk1_abbott_41_19b
 30 30  0  0  0  0  0  0  0  0999 V2000
   19.8860   62.9740    8.2840 C   0  0  0  0  0  0  0  0  0  0  0  0
   20.7300   62.7780    9.5410 C   0  0  0  0  0  0  0  0  0  0  0  0
   20.0440   63.4860   10.6270 O   0  0  0  0  0  0  0  0  0  0  0  0
   20.1880   64.8340   10.8620 C   0  0  0  0  0  0  0  0  0  0  0  0
   20.9730   65.5380   10.0100 N   0  0  0  0  0  0  0  0  0  0  0  0
   21.1460   66.8450   10.2150 C   0  0  0  0  0  0  0  0  0  0  0  0
   20.5290   67.5370   11.2470 C   0  0  0  0  0  0  0  0  0  0  0  0
   19.7210   66.8260   12.1190 C   0  0  0  0  0  0  0  0  0  0  0  0
   19.1550   67.5630   13.1520 N   0  0  0  0  0  0  0  0  0  0  0  0
   19.5310   65.4440   11.9380 C   0  0  0  0  0  0  0  0  0  0  0  0
   18.7060   64.6340   12.8270 C   0  0  0  0  0  0  0  0  0  0  0  0
   18.0510   63.9840   13.5270 N   0  0  0  0  0  0  0  0  0  0  0  0
   21.9740   67.3730    9.2390 N   0  0  0  0  0  0  0  0  0  0  0  0
   22.5440   68.6050    9.1510 C   0  0  0  0  0  0  0  0  0  0  0  0
   22.3770   69.4430   10.0070 O   0  0  0  0  0  0  0  0  0  0  0  0
   23.3960   68.8510    7.9370 C   0  0  0  0  0  0  0  0  0  0  0  0
   20.6460   62.4340    7.0970 C   0  0  0  0  0  0  0  0  0  0  0  0
   21.2990   63.2590    6.4250 O   0  0  0  0  0  0  0  0  0  0  0  0
   20.5930   61.2000    6.9180 O   0  5  0  0  0  0  0  0  0  0  0  0
   19.6870   64.0360    8.1390 H   0  0  0  0  0  0  0  0  0  0  0  0
   18.9430   62.4380    8.3900 H   0  0  0  0  0  0  0  0  0  0  0  0
   21.7270   63.1950    9.3930 H   0  0  0  0  0  0  0  0  0  0  0  0
   20.8110   61.7180    9.7770 H   0  0  0  0  0  0  0  0  0  0  0  0
   20.6750   68.6010   11.3680 H   0  0  0  0  0  0  0  0  0  0  0  0
   18.5650   67.1080   13.8330 H   0  0  0  0  0  0  0  0  0  0  0  0
   19.3340   68.5550   13.2210 H   0  0  0  0  0  0  0  0  0  0  0  0
   22.1880   66.7470    8.4750 H   0  0  0  0  0  0  0  0  0  0  0  0
   23.4000   67.9600    7.3090 H   0  0  0  0  0  0  0  0  0  0  0  0
   24.4150   69.0800    8.2480 H   0  0  0  0  0  0  0  0  0  0  0  0
   22.9910   69.6920    7.3730 H   0  0  0  0  0  0  0  0  0  0  0  0
  1  2  1  0  0  0  0
  1 17  1  0  0  0  0
  1 20  1  0  0  0  0
  1 21  1  0  0  0  0
  2  3  1  0  0  0  0
  2 22  1  0  0  0  0
  2 23  1  0  0  0  0
  3  4  1  0  0  0  0
  4  5  1  0  0  0  0
  4 10  2  0  0  0  0
  5  6  2  0  0  0  0
  6  7  1  0  0  0  0
  6 13  1  0  0  0  0
  7  8  2  0  0  0  0
  7 24  1  0  0  0  0
  8  9  1  0  0  0  0
  8 10  1  0  0  0  0
  9 25  1  0  0  0  0
  9 26  1  0  0  0  0
 10 11  1  0  0  0  0
 11 12  3  0  0  0  0
 13 14  1  0  0  0  0
 13 27  1  0  0  0  0
 14 15  2  0  0  0  0
 14 16  1  0  0  0  0
 16 28  1  0  0  0  0
 16 29  1  0  0  0  0
 16 30  1  0  0  0  0
 17 18  2  0  0  0  0
 17 19  1  0  0  0  0
M  CHG  1  19  -1
M  END
$$$$
jnk1_abbott_42_19c
  MOE2024           3D
jnk1_abbott_42_19c
 33 34  0  0  1  0  0  0  0  0999 V2000
   20.0200   63.4870   10.6220 O   0  0  0  0  0  0  0  0  0  0  0  0
   20.1830   64.8290   10.8570 C   0  0  0  0  0  0  0  0  0  0  0  0
   20.9780   65.5270   10.0100 N   0  0  0  0  0  0  0  0  0  0  0  0
   21.1770   66.8280   10.2280 C   0  0  0  0  0  0  0  0  0  0  0  0
   20.5780   67.5210   11.2700 C   0  0  0  0  0  0  0  0  0  0  0  0
   19.7600   66.8150   12.1370 C   0  0  0  0  0  0  0  0  0  0  0  0
   19.2130   67.5520   13.1810 N   0  0  0  0  0  0  0  0  0  0  0  0
   19.5430   65.4400   11.9430 C   0  0  0  0  0  0  0  0  0  0  0  0
   18.7060   64.6360   12.8260 C   0  0  0  0  0  0  0  0  0  0  0  0
   18.0420   63.9920   13.5220 N   0  0  0  0  0  0  0  0  0  0  0  0
   22.0320   67.3600    9.2710 N   0  0  0  0  0  0  0  0  0  0  0  0
   22.5520   68.6160    9.1580 C   0  0  0  0  0  0  0  0  0  0  0  0
   22.3010   69.4810    9.9620 O   0  0  0  0  0  0  0  0  0  0  0  0
   23.4570   68.8510    7.9810 C   0  0  0  0  0  0  0  0  0  0  0  0
   20.5770   60.7480    8.4470 O   0  0  0  0  0  0  0  0  0  0  0  0
   20.5780   61.2910    9.7540 C   0  0  0  0  0  0  0  0  0  0  0  0
   20.6480   62.7930    9.5110 C   0  0  3  0  0  0  0  0  0  0  0  0
   19.7970   62.9610    8.2520 C   0  0  0  0  0  0  0  0  0  0  0  0
   19.6990   61.5460    7.6750 C   0  0  0  0  0  0  0  0  0  0  0  0
   20.7450   68.5800   11.4020 H   0  0  0  0  0  0  0  0  0  0  0  0
   18.6170   67.1010   13.8600 H   0  0  0  0  0  0  0  0  0  0  0  0
   19.4110   68.5400   13.2610 H   0  0  0  0  0  0  0  0  0  0  0  0
   22.3120   66.7160    8.5450 H   0  0  0  0  0  0  0  0  0  0  0  0
   23.5380   67.9350    7.3950 H   0  0  0  0  0  0  0  0  0  0  0  0
   24.4450   69.1450    8.3340 H   0  0  0  0  0  0  0  0  0  0  0  0
   23.0430   69.6450    7.3580 H   0  0  0  0  0  0  0  0  0  0  0  0
   19.6670   61.0240   10.2890 H   0  0  0  0  0  0  0  0  0  0  0  0
   21.4450   60.9460   10.3190 H   0  0  0  0  0  0  0  0  0  0  0  0
   21.6610   63.1830    9.4120 H   0  0  0  0  0  0  0  0  0  0  0  0
   18.8090   63.3460    8.5010 H   0  0  0  0  0  0  0  0  0  0  0  0
   20.2820   63.6340    7.5440 H   0  0  0  0  0  0  0  0  0  0  0  0
   20.0040   61.5420    6.6290 H   0  0  0  0  0  0  0  0  0  0  0  0
   18.6780   61.1740    7.7570 H   0  0  0  0  0  0  0  0  0  0  0  0
  1  2  1  0  0  0  0
  1 17  1  0  0  0  0
  2  3  1  0  0  0  0
  2  8  2  0  0  0  0
  3  4  2  0  0  0  0
  4  5  1  0  0  0  0
  4 11  1  0  0  0  0
  5  6  2  0  0  0  0
  5 20  1  0  0  0  0
  6  7  1  0  0  0  0
  6  8  1  0  0  0  0
  7 21  1  0  0  0  0
  7 22  1  0  0  0  0
  8  9  1  0  0  0  0
  9 10  3  0  0  0  0
 11 12  1  0  0  0  0
 11 23  1  0  0  0  0
 12 13  2  0  0  0  0
 12 14  1  0  0  0  0
 14 24  1  0  0  0  0
 14 25  1  0  0  0  0
 14 26  1  0  0  0  0
 15 16  1  0  0  0  0
 15 19  1  0  0  0  0
 16 17  1  0  0  0  0
 16 27  1  0  0  0  0
 16 28  1  0  0  0  0
 17 18  1  0  0  0  0
 17 29  1  0  0  0  0
 18 19  1  0  0  0  0
 18 30  1  0  0  0  0
 18 31  1  0  0  0  0
 19 32  1  0  0  0  0
 19 33  1  0  0  0  0
M  END
$$$$
jnk1_abbott_43_19d
  MOE2024           3D
jnk1_abbott_43_19d
 34 34  0  0  0  0  0  0  0  0999 V2000
   19.9050   63.5240   10.5720 O   0  0  0  0  0  0  0  0  0  0  0  0
   20.4800   62.8470    9.4310 C   0  0  0  0  0  0  0  0  0  0  0  0
   20.0250   61.3910    9.5620 C   0  0  0  0  0  0  0  0  0  0  0  0
   20.5520   60.5410    8.3970 C   0  0  0  0  0  0  0  0  0  0  0  0
   20.0940   59.0860    8.5440 C   0  0  0  0  0  0  0  0  0  0  0  0
   20.1210   64.8520   10.8360 C   0  0  0  0  0  0  0  0  0  0  0  0
   20.9050   65.5480    9.9790 N   0  0  0  0  0  0  0  0  0  0  0  0
   21.1500   66.8370   10.2230 C   0  0  0  0  0  0  0  0  0  0  0  0
   20.6080   67.5190   11.3030 C   0  0  0  0  0  0  0  0  0  0  0  0
   19.8010   66.8150   12.1800 C   0  0  0  0  0  0  0  0  0  0  0  0
   19.3120   67.5390   13.2610 N   0  0  0  0  0  0  0  0  0  0  0  0
   19.5370   65.4520   11.9590 C   0  0  0  0  0  0  0  0  0  0  0  0
   18.7080   64.6480   12.8510 C   0  0  0  0  0  0  0  0  0  0  0  0
   18.0510   64.0050   13.5540 N   0  0  0  0  0  0  0  0  0  0  0  0
   21.9840   67.3730    9.2490 N   0  0  0  0  0  0  0  0  0  0  0  0
   22.5580   68.6080    9.1690 C   0  0  0  0  0  0  0  0  0  0  0  0
   22.3910   69.4440   10.0250 O   0  0  0  0  0  0  0  0  0  0  0  0
   23.4150   68.8590    7.9600 C   0  0  0  0  0  0  0  0  0  0  0  0
   21.5680   62.9120    9.4550 H   0  0  0  0  0  0  0  0  0  0  0  0
   20.1110   63.2820    8.5020 H   0  0  0  0  0  0  0  0  0  0  0  0
   18.9350   61.3580    9.5620 H   0  0  0  0  0  0  0  0  0  0  0  0
   20.4020   60.9840   10.5000 H   0  0  0  0  0  0  0  0  0  0  0  0
   21.6420   60.5750    8.3930 H   0  0  0  0  0  0  0  0  0  0  0  0
   20.1720   60.9430    7.4590 H   0  0  0  0  0  0  0  0  0  0  0  0
   20.4710   58.6790    9.4820 H   0  0  0  0  0  0  0  0  0  0  0  0
   20.4800   58.4980    7.7110 H   0  0  0  0  0  0  0  0  0  0  0  0
   19.0050   59.0460    8.5430 H   0  0  0  0  0  0  0  0  0  0  0  0
   20.8100   68.5690   11.4550 H   0  0  0  0  0  0  0  0  0  0  0  0
   18.7270   67.0870   13.9490 H   0  0  0  0  0  0  0  0  0  0  0  0
   19.5420   68.5180   13.3580 H   0  0  0  0  0  0  0  0  0  0  0  0
   22.1980   66.7520    8.4820 H   0  0  0  0  0  0  0  0  0  0  0  0
   23.4220   67.9710    7.3280 H   0  0  0  0  0  0  0  0  0  0  0  0
   24.4330   69.0870    8.2770 H   0  0  0  0  0  0  0  0  0  0  0  0
   23.0130   69.7020    7.3980 H   0  0  0  0  0  0  0  0  0  0  0  0
  1  2  1  0  0  0  0
  1  6  1  0  0  0  0
  2  3  1  0  0  0  0
  2 19  1  0  0  0  0
  2 20  1  0  0  0  0
  3  4  1  0  0  0  0
  3 21  1  0  0  0  0
  3 22  1  0  0  0  0
  4  5  1  0  0  0  0
  4 23  1  0  0  0  0
  4 24  1  0  0  0  0
  5 25  1  0  0  0  0
  5 26  1  0  0  0  0
  5 27  1  0  0  0  0
  6  7  1  0  0  0  0
  6 12  2  0  0  0  0
  7  8  2  0  0  0  0
  8  9  1  0  0  0  0
  8 15  1  0  0  0  0
  9 10  2  0  0  0  0
  9 28  1  0  0  0  0
 10 11  1  0  0  0  0
 10 12  1  0  0  0  0
 11 29  1  0  0  0  0
 11 30  1  0  0  0  0
 12 13  1  0  0  0  0
 13 14  3  0  0  0  0
 15 16  1  0  0  0  0
 15 31  1  0  0  0  0
 16 17  2  0  0  0  0
 16 18  1  0  0  0  0
 18 32  1  0  0  0  0
 18 33  1  0  0  0  0
 18 34  1  0  0  0  0
M  END
$$$$
jnk1_abbott_44_19e
  MOE2024           3D
jnk1_abbott_44_19e
 25 25  0  0  0  0  0  0  0  0999 V2000
   19.9050   63.5240   10.5720 O   0  0  0  0  0  0  0  0  0  0  0  0
   20.4800   62.8470    9.4310 C   0  0  0  0  0  0  0  0  0  0  0  0
   20.1210   64.8520   10.8360 C   0  0  0  0  0  0  0  0  0  0  0  0
   20.9050   65.5480    9.9790 N   0  0  0  0  0  0  0  0  0  0  0  0
   21.1500   66.8370   10.2230 C   0  0  0  0  0  0  0  0  0  0  0  0
   20.6080   67.5190   11.3030 C   0  0  0  0  0  0  0  0  0  0  0  0
   19.8010   66.8150   12.1800 C   0  0  0  0  0  0  0  0  0  0  0  0
   19.3120   67.5390   13.2610 N   0  0  0  0  0  0  0  0  0  0  0  0
   19.5370   65.4520   11.9590 C   0  0  0  0  0  0  0  0  0  0  0  0
   18.7080   64.6480   12.8510 C   0  0  0  0  0  0  0  0  0  0  0  0
   18.0510   64.0050   13.5540 N   0  0  0  0  0  0  0  0  0  0  0  0
   21.9840   67.3730    9.2490 N   0  0  0  0  0  0  0  0  0  0  0  0
   22.5580   68.6080    9.1690 C   0  0  0  0  0  0  0  0  0  0  0  0
   22.3910   69.4440   10.0250 O   0  0  0  0  0  0  0  0  0  0  0  0
   23.4150   68.8590    7.9600 C   0  0  0  0  0  0  0  0  0  0  0  0
   20.1690   61.8030    9.4330 H   0  0  0  0  0  0  0  0  0  0  0  0
   21.5670   62.9020    9.4850 H   0  0  0  0  0  0  0  0  0  0  0  0
   20.1380   63.3270    8.5140 H   0  0  0  0  0  0  0  0  0  0  0  0
   20.8100   68.5690   11.4550 H   0  0  0  0  0  0  0  0  0  0  0  0
   18.7270   67.0870   13.9490 H   0  0  0  0  0  0  0  0  0  0  0  0
   19.5420   68.5180   13.3580 H   0  0  0  0  0  0  0  0  0  0  0  0
   22.1980   66.7520    8.4820 H   0  0  0  0  0  0  0  0  0  0  0  0
   23.4220   67.9710    7.3280 H   0  0  0  0  0  0  0  0  0  0  0  0
   24.4330   69.0870    8.2770 H   0  0  0  0  0  0  0  0  0  0  0  0
   23.0130   69.7020    7.3980 H   0  0  0  0  0  0  0  0  0  0  0  0
  1  2  1  0  0  0  0
  1  3  1  0  0  0  0
  2 16  1  0  0  0  0
  2 17  1  0  0  0  0
  2 18  1  0  0  0  0
  3  4  1  0  0  0  0
  3  9  2  0  0  0  0
  4  5  2  0  0  0  0
  5  6  1  0  0  0  0
  5 12  1  0  0  0  0
  6  7  2  0  0  0  0
  6 19  1  0  0  0  0
  7  8  1  0  0  0  0
  7  9  1  0  0  0  0
  8 20  1  0  0  0  0
  8 21  1  0  0  0  0
  9 10  1  0  0  0  0
 10 11  3  0  0  0  0
 12 13  1  0  0  0  0
 12 22  1  0  0  0  0
 13 14  2  0  0  0  0
 13 15  1  0  0  0  0
 15 23  1  0  0  0  0
 15 24  1  0  0  0  0
 15 25  1  0  0  0  0
M  END
$$$$
jnk1_abbott_45_20a
  MOE2024           3D
jnk1_abbott_45_20a
 47 48  0  0  0  0  0  0  0  0999 V2000
   21.3880   60.6650    8.8930 O   0  0  0  0  0  0  0  0  0  0  0  0
   20.4880   61.3860    9.7180 C   0  0  0  0  0  0  0  0  0  0  0  0
   20.7370   62.9000    9.6280 C   0  0  0  0  0  0  0  0  0  0  0  0
   19.8860   63.5630   10.5670 O   0  0  0  0  0  0  0  0  0  0  0  0
   20.0560   64.9180   10.7950 C   0  0  0  0  0  0  0  0  0  0  0  0
   20.8520   65.5990    9.9290 N   0  0  0  0  0  0  0  0  0  0  0  0
   21.0950   66.8970   10.1710 C   0  0  0  0  0  0  0  0  0  0  0  0
   20.5480   67.5810   11.2490 C   0  0  0  0  0  0  0  0  0  0  0  0
   19.7400   66.8840   12.1300 C   0  0  0  0  0  0  0  0  0  0  0  0
   19.2620   67.6100   13.2140 N   0  0  0  0  0  0  0  0  0  0  0  0
   19.4710   65.5230   11.9130 C   0  0  0  0  0  0  0  0  0  0  0  0
   18.6520   64.7200   12.8140 C   0  0  0  0  0  0  0  0  0  0  0  0
   18.0050   64.0740   13.5230 N   0  0  0  0  0  0  0  0  0  0  0  0
   21.9520   67.4230    9.2250 N   0  0  0  0  0  0  0  0  0  0  0  0
   22.6640   68.5540    9.2360 C   0  0  0  0  0  0  0  0  0  0  0  0
   22.6780   69.3630   10.1600 O   0  0  0  0  0  0  0  0  0  0  0  0
   23.5740   68.7760    8.0330 C   0  0  0  0  0  0  0  0  0  0  0  0
   22.8290   68.8130    6.7010 C   0  0  0  0  0  0  0  0  0  0  0  0
   22.4710   67.6220    6.0480 C   0  0  0  0  0  0  0  0  0  0  0  0
   22.7910   66.4300    6.6760 O   0  0  0  0  0  0  0  0  0  0  0  0
   22.2940   65.2020    6.1470 C   0  0  0  0  0  0  0  0  0  0  0  0
   21.8130   67.7020    4.8140 C   0  0  0  0  0  0  0  0  0  0  0  0
   21.4860   68.9420    4.2620 C   0  0  0  0  0  0  0  0  0  0  0  0
   21.8310   70.1250    4.9090 C   0  0  0  0  0  0  0  0  0  0  0  0
   22.5110   70.0510    6.1320 C   0  0  0  0  0  0  0  0  0  0  0  0
   21.4610   71.3020    4.2930 O   0  0  0  0  0  0  0  0  0  0  0  0
   22.1270   72.5090    4.6550 C   0  0  0  0  0  0  0  0  0  0  0  0
   21.1860   59.7320    8.9890 H   0  0  0  0  0  0  0  0  0  0  0  0
   20.6200   61.0660   10.7520 H   0  0  0  0  0  0  0  0  0  0  0  0
   19.4670   61.1750    9.4000 H   0  0  0  0  0  0  0  0  0  0  0  0
   20.5130   63.2480    8.6200 H   0  0  0  0  0  0  0  0  0  0  0  0
   21.7790   63.1140    9.8640 H   0  0  0  0  0  0  0  0  0  0  0  0
   20.7480   68.6320   11.3950 H   0  0  0  0  0  0  0  0  0  0  0  0
   18.6820   67.1600   13.9070 H   0  0  0  0  0  0  0  0  0  0  0  0
   19.4950   68.5890   13.3080 H   0  0  0  0  0  0  0  0  0  0  0  0
   22.0570   66.8640    8.3910 H   0  0  0  0  0  0  0  0  0  0  0  0
   24.3030   67.9660    7.9970 H   0  0  0  0  0  0  0  0  0  0  0  0
   24.0920   69.7260    8.1640 H   0  0  0  0  0  0  0  0  0  0  0  0
   22.6430   64.3740    6.7640 H   0  0  0  0  0  0  0  0  0  0  0  0
   22.6550   65.0730    5.1270 H   0  0  0  0  0  0  0  0  0  0  0  0
   21.2040   65.2210    6.1470 H   0  0  0  0  0  0  0  0  0  0  0  0
   21.5560   66.7960    4.2850 H   0  0  0  0  0  0  0  0  0  0  0  0
   20.9590   68.9830    3.3210 H   0  0  0  0  0  0  0  0  0  0  0  0
   22.7910   70.9600    6.6430 H   0  0  0  0  0  0  0  0  0  0  0  0
   21.7150   73.3380    4.0790 H   0  0  0  0  0  0  0  0  0  0  0  0
   23.1920   72.4130    4.4440 H   0  0  0  0  0  0  0  0  0  0  0  0
   21.9820   72.6990    5.7190 H   0  0  0  0  0  0  0  0  0  0  0  0
  1  2  1  0  0  0  0
  1 28  1  0  0  0  0
  2  3  1  0  0  0  0
  2 29  1  0  0  0  0
  2 30  1  0  0  0  0
  3  4  1  0  0  0  0
  3 31  1  0  0  0  0
  3 32  1  0  0  0  0
  4  5  1  0  0  0  0
  5  6  1  0  0  0  0
  5 11  2  0  0  0  0
  6  7  2  0  0  0  0
  7  8  1  0  0  0  0
  7 14  1  0  0  0  0
  8  9  2  0  0  0  0
  8 33  1  0  0  0  0
  9 10  1  0  0  0  0
  9 11  1  0  0  0  0
 10 34  1  0  0  0  0
 10 35  1  0  0  0  0
 11 12  1  0  0  0  0
 12 13  3  0  0  0  0
 14 15  1  0  0  0  0
 14 36  1  0  0  0  0
 15 16  2  0  0  0  0
 15 17  1  0  0  0  0
 17 18  1  0  0  0  0
 17 37  1  0  0  0  0
 17 38  1  0  0  0  0
 18 19  1  0  0  0  0
 18 25  2  0  0  0  0
 19 20  1  0  0  0  0
 19 22  2  0  0  0  0
 20 21  1  0  0  0  0
 21 39  1  0  0  0  0
 21 40  1  0  0  0  0
 21 41  1  0  0  0  0
 22 23  1  0  0  0  0
 22 42  1  0  0  0  0
 23 24  2  0  0  0  0
 23 43  1  0  0  0  0
 24 25  1  0  0  0  0
 24 26  1  0  0  0  0
 25 44  1  0  0  0  0
 26 27  1  0  0  0  0
 27 45  1  0  0  0  0
 27 46  1  0  0  0  0
 27 47  1  0  0  0  0
M  END
$$$$
jnk1_abbott_46_20b
  MOE2024           3D
jnk1_abbott_46_20b
 50 51  0  0  0  0  0  0  0  0999 V2000
   21.5390   60.4580    7.9370 C   0  0  0  0  0  0  0  0  0  0  0  0
   20.1900   60.9000    8.0510 O   0  0  0  0  0  0  0  0  0  0  0  0
   19.8830   61.5290    9.2960 C   0  0  0  0  0  0  0  0  0  0  0  0
   20.3940   62.9790    9.3750 C   0  0  0  0  0  0  0  0  0  0  0  0
   19.8550   63.5790   10.5540 O   0  0  0  0  0  0  0  0  0  0  0  0
   20.0770   64.9200   10.8140 C   0  0  0  0  0  0  0  0  0  0  0  0
   20.8600   65.6070    9.9390 N   0  0  0  0  0  0  0  0  0  0  0  0
   21.1080   66.9030   10.1910 C   0  0  0  0  0  0  0  0  0  0  0  0
   20.5680   67.5800   11.2770 C   0  0  0  0  0  0  0  0  0  0  0  0
   19.7760   66.8770   12.1660 C   0  0  0  0  0  0  0  0  0  0  0  0
   19.2960   67.6000   13.2510 N   0  0  0  0  0  0  0  0  0  0  0  0
   19.5190   65.5130   11.9500 C   0  0  0  0  0  0  0  0  0  0  0  0
   18.7200   64.6990   12.8600 C   0  0  0  0  0  0  0  0  0  0  0  0
   18.0900   64.0420   13.5740 N   0  0  0  0  0  0  0  0  0  0  0  0
   21.9580   67.4400    9.2430 N   0  0  0  0  0  0  0  0  0  0  0  0
   22.6400   68.5900    9.2430 C   0  0  0  0  0  0  0  0  0  0  0  0
   22.6190   69.4170   10.1530 O   0  0  0  0  0  0  0  0  0  0  0  0
   23.5590   68.8200    8.0490 C   0  0  0  0  0  0  0  0  0  0  0  0
   22.8300   68.8230    6.7090 C   0  0  0  0  0  0  0  0  0  0  0  0
   22.5250   67.6160    6.0600 C   0  0  0  0  0  0  0  0  0  0  0  0
   22.8760   66.4400    6.7000 O   0  0  0  0  0  0  0  0  0  0  0  0
   22.4250   65.1930    6.1780 C   0  0  0  0  0  0  0  0  0  0  0  0
   21.8830   67.6650    4.8150 C   0  0  0  0  0  0  0  0  0  0  0  0
   21.5150   68.8880    4.2530 C   0  0  0  0  0  0  0  0  0  0  0  0
   21.8030   70.0870    4.9010 C   0  0  0  0  0  0  0  0  0  0  0  0
   22.4680   70.0460    6.1330 C   0  0  0  0  0  0  0  0  0  0  0  0
   21.3890   71.2450    4.2760 O   0  0  0  0  0  0  0  0  0  0  0  0
   22.0020   72.4800    4.6380 C   0  0  0  0  0  0  0  0  0  0  0  0
   21.6870   59.9930    6.9620 H   0  0  0  0  0  0  0  0  0  0  0  0
   21.7520   59.7330    8.7220 H   0  0  0  0  0  0  0  0  0  0  0  0
   22.2100   61.3110    8.0380 H   0  0  0  0  0  0  0  0  0  0  0  0
   20.3430   60.9530   10.0990 H   0  0  0  0  0  0  0  0  0  0  0  0
   18.8010   61.5330    9.4260 H   0  0  0  0  0  0  0  0  0  0  0  0
   20.0660   63.5340    8.4960 H   0  0  0  0  0  0  0  0  0  0  0  0
   21.4830   62.9850    9.4230 H   0  0  0  0  0  0  0  0  0  0  0  0
   20.7630   68.6310   11.4240 H   0  0  0  0  0  0  0  0  0  0  0  0
   18.7230   67.1450   13.9470 H   0  0  0  0  0  0  0  0  0  0  0  0
   19.5200   68.5800   13.3430 H   0  0  0  0  0  0  0  0  0  0  0  0
   22.0850   66.8720    8.4180 H   0  0  0  0  0  0  0  0  0  0  0  0
   24.3070   68.0270    8.0330 H   0  0  0  0  0  0  0  0  0  0  0  0
   24.0540   69.7830    8.1750 H   0  0  0  0  0  0  0  0  0  0  0  0
   22.7940   64.3810    6.8050 H   0  0  0  0  0  0  0  0  0  0  0  0
   22.7990   65.0670    5.1620 H   0  0  0  0  0  0  0  0  0  0  0  0
   21.3350   65.1760    6.1680 H   0  0  0  0  0  0  0  0  0  0  0  0
   21.6720   66.7480    4.2850 H   0  0  0  0  0  0  0  0  0  0  0  0
   21.0010   68.9050    3.3030 H   0  0  0  0  0  0  0  0  0  0  0  0
   22.7040   70.9680    6.6430 H   0  0  0  0  0  0  0  0  0  0  0  0
   21.5620   73.2890    4.0540 H   0  0  0  0  0  0  0  0  0  0  0  0
   23.0720   72.4280    4.4370 H   0  0  0  0  0  0  0  0  0  0  0  0
   21.8400   72.6690    5.6990 H   0  0  0  0  0  0  0  0  0  0  0  0
  1  2  1  0  0  0  0
  1 29  1  0  0  0  0
  1 30  1  0  0  0  0
  1 31  1  0  0  0  0
  2  3  1  0  0  0  0
  3  4  1  0  0  0  0
  3 32  1  0  0  0  0
  3 33  1  0  0  0  0
  4  5  1  0  0  0  0
  4 34  1  0  0  0  0
  4 35  1  0  0  0  0
  5  6  1  0  0  0  0
  6  7  1  0  0  0  0
  6 12  2  0  0  0  0
  7  8  2  0  0  0  0
  8  9  1  0  0  0  0
  8 15  1  0  0  0  0
  9 10  2  0  0  0  0
  9 36  1  0  0  0  0
 10 11  1  0  0  0  0
 10 12  1  0  0  0  0
 11 37  1  0  0  0  0
 11 38  1  0  0  0  0
 12 13  1  0  0  0  0
 13 14  3  0  0  0  0
 15 16  1  0  0  0  0
 15 39  1  0  0  0  0
 16 17  2  0  0  0  0
 16 18  1  0  0  0  0
 18 19  1  0  0  0  0
 18 40  1  0  0  0  0
 18 41  1  0  0  0  0
 19 20  1  0  0  0  0
 19 26  2  0  0  0  0
 20 21  1  0  0  0  0
 20 23  2  0  0  0  0
 21 22  1  0  0  0  0
 22 42  1  0  0  0  0
 22 43  1  0  0  0  0
 22 44  1  0  0  0  0
 23 24  1  0  0  0  0
 23 45  1  0  0  0  0
 24 25  2  0  0  0  0
 24 46  1  0  0  0  0
 25 26  1  0  0  0  0
 25 27  1  0  0  0  0
 26 47  1  0  0  0  0
 27 28  1  0  0  0  0
 28 48  1  0  0  0  0
 28 49  1  0  0  0  0
 28 50  1  0  0  0  0
M  END
$$$$
jnk1_abbott_47_20c
  MOE2024           3D
jnk1_abbott_47_20c
 52 53  0  0  0  0  0  0  0  0999 V2000
   20.4120   61.1480   12.4510 C   0  0  0  0  0  0  0  0  0  0  0  0
   20.4900   60.5910   10.7120 S   0  0  0  0  0  0  0  0  0  0  0  0
   21.2520   59.3330   10.6870 O   0  0  0  0  0  0  0  0  0  0  0  0
   19.1350   60.6460   10.1510 O   0  0  0  0  0  0  0  0  0  0  0  0
   21.4750   61.8890    9.8820 C   0  0  0  0  0  0  0  0  0  0  0  0
   20.5890   63.0280    9.3710 C   0  0  0  0  0  0  0  0  0  0  0  0
   19.9320   63.6200   10.4980 O   0  0  0  0  0  0  0  0  0  0  0  0
   20.0550   64.9690   10.7740 C   0  0  0  0  0  0  0  0  0  0  0  0
   20.7940   65.7010    9.9100 N   0  0  0  0  0  0  0  0  0  0  0  0
   21.0040   66.9890   10.1770 C   0  0  0  0  0  0  0  0  0  0  0  0
   20.4700   67.6370   11.2820 C   0  0  0  0  0  0  0  0  0  0  0  0
   19.7040   66.8930   12.1640 C   0  0  0  0  0  0  0  0  0  0  0  0
   19.2230   67.5780   13.2740 N   0  0  0  0  0  0  0  0  0  0  0  0
   19.4740   65.5280   11.9190 C   0  0  0  0  0  0  0  0  0  0  0  0
   18.6840   64.6830   12.8060 C   0  0  0  0  0  0  0  0  0  0  0  0
   18.0580   64.0040   13.5050 N   0  0  0  0  0  0  0  0  0  0  0  0
   21.8160   67.5250    9.2090 N   0  0  0  0  0  0  0  0  0  0  0  0
   22.6040   68.5930    9.2590 C   0  0  0  0  0  0  0  0  0  0  0  0
   22.6970   69.3230   10.2410 O   0  0  0  0  0  0  0  0  0  0  0  0
   23.4960   68.8250    8.0440 C   0  0  0  0  0  0  0  0  0  0  0  0
   22.7550   68.8120    6.7070 C   0  0  0  0  0  0  0  0  0  0  0  0
   22.4430   67.5980    6.0730 C   0  0  0  0  0  0  0  0  0  0  0  0
   22.8010   66.4310    6.7220 O   0  0  0  0  0  0  0  0  0  0  0  0
   22.4750   65.1700    6.1400 C   0  0  0  0  0  0  0  0  0  0  0  0
   21.7890   67.6340    4.8330 C   0  0  0  0  0  0  0  0  0  0  0  0
   21.4280   68.8520    4.2550 C   0  0  0  0  0  0  0  0  0  0  0  0
   21.7330   70.0570    4.8820 C   0  0  0  0  0  0  0  0  0  0  0  0
   22.4020   70.0260    6.1110 C   0  0  0  0  0  0  0  0  0  0  0  0
   21.3370   71.2120    4.2390 O   0  0  0  0  0  0  0  0  0  0  0  0
   21.9450   72.4470    4.6070 C   0  0  0  0  0  0  0  0  0  0  0  0
   19.8370   60.4300   13.0360 H   0  0  0  0  0  0  0  0  0  0  0  0
   19.9300   62.1240   12.4980 H   0  0  0  0  0  0  0  0  0  0  0  0
   21.4210   61.2210   12.8550 H   0  0  0  0  0  0  0  0  0  0  0  0
   22.0030   61.4460    9.0370 H   0  0  0  0  0  0  0  0  0  0  0  0
   22.1970   62.2930   10.5910 H   0  0  0  0  0  0  0  0  0  0  0  0
   19.8470   62.6360    8.6760 H   0  0  0  0  0  0  0  0  0  0  0  0
   21.2020   63.7750    8.8660 H   0  0  0  0  0  0  0  0  0  0  0  0
   20.6470   68.6900   11.4490 H   0  0  0  0  0  0  0  0  0  0  0  0
   18.6710   67.0940   13.9670 H   0  0  0  0  0  0  0  0  0  0  0  0
   19.4270   68.5610   13.3870 H   0  0  0  0  0  0  0  0  0  0  0  0
   21.8150   67.0340    8.3270 H   0  0  0  0  0  0  0  0  0  0  0  0
   24.2530   68.0410    8.0220 H   0  0  0  0  0  0  0  0  0  0  0  0
   23.9800   69.7950    8.1560 H   0  0  0  0  0  0  0  0  0  0  0  0
   22.8320   64.3690    6.7870 H   0  0  0  0  0  0  0  0  0  0  0  0
   22.9510   65.0880    5.1630 H   0  0  0  0  0  0  0  0  0  0  0  0
   21.3940   65.0910    6.0260 H   0  0  0  0  0  0  0  0  0  0  0  0
   21.5640   66.7110    4.3200 H   0  0  0  0  0  0  0  0  0  0  0  0
   20.9050   68.8590    3.3100 H   0  0  0  0  0  0  0  0  0  0  0  0
   22.6490   70.9540    6.6060 H   0  0  0  0  0  0  0  0  0  0  0  0
   21.5210   73.2530    4.0080 H   0  0  0  0  0  0  0  0  0  0  0  0
   23.0190   72.3900    4.4330 H   0  0  0  0  0  0  0  0  0  0  0  0
   21.7580   72.6430    5.6630 H   0  0  0  0  0  0  0  0  0  0  0  0
  1  2  1  0  0  0  0
  1 31  1  0  0  0  0
  1 32  1  0  0  0  0
  1 33  1  0  0  0  0
  2  3  2  0  0  0  0
  2  4  2  0  0  0  0
  2  5  1  0  0  0  0
  5  6  1  0  0  0  0
  5 34  1  0  0  0  0
  5 35  1  0  0  0  0
  6  7  1  0  0  0  0
  6 36  1  0  0  0  0
  6 37  1  0  0  0  0
  7  8  1  0  0  0  0
  8  9  1  0  0  0  0
  8 14  2  0  0  0  0
  9 10  2  0  0  0  0
 10 11  1  0  0  0  0
 10 17  1  0  0  0  0
 11 12  2  0  0  0  0
 11 38  1  0  0  0  0
 12 13  1  0  0  0  0
 12 14  1  0  0  0  0
 13 39  1  0  0  0  0
 13 40  1  0  0  0  0
 14 15  1  0  0  0  0
 15 16  3  0  0  0  0
 17 18  1  0  0  0  0
 17 41  1  0  0  0  0
 18 19  2  0  0  0  0
 18 20  1  0  0  0  0
 20 21  1  0  0  0  0
 20 42  1  0  0  0  0
 20 43  1  0  0  0  0
 21 22  1  0  0  0  0
 21 28  2  0  0  0  0
 22 23  1  0  0  0  0
 22 25  2  0  0  0  0
 23 24  1  0  0  0  0
 24 44  1  0  0  0  0
 24 45  1  0  0  0  0
 24 46  1  0  0  0  0
 25 26  1  0  0  0  0
 25 47  1  0  0  0  0
 26 27  2  0  0  0  0
 26 48  1  0  0  0  0
 27 28  1  0  0  0  0
 27 29  1  0  0  0  0
 28 49  1  0  0  0  0
 29 30  1  0  0  0  0
 30 50  1  0  0  0  0
 30 51  1  0  0  0  0
 30 52  1  0  0  0  0
M  END
$$$$
jnk1_abbott_48_21
  MOE2024           3D
jnk1_abbott_48_21
 34 34  0  0  0  0  0  0  0  0999 V2000
   19.9120   63.5250   10.5640 S   0  0  0  0  0  0  0  0  0  0  0  0
   20.4870   62.8510    9.4210 C   0  0  0  0  0  0  0  0  0  0  0  0
   20.1150   61.4730    9.4640 C   0  0  0  0  0  0  0  0  0  0  0  0
   20.6750   60.7920    8.3410 C   0  0  0  0  0  0  0  0  0  0  0  0
   20.3020   59.4150    8.3840 C   0  0  0  0  0  0  0  0  0  0  0  0
   20.1230   64.8530   10.8280 C   0  0  0  0  0  0  0  0  0  0  0  0
   20.9040   65.5530    9.9690 N   0  0  0  0  0  0  0  0  0  0  0  0
   21.1440   66.8430   10.2140 C   0  0  0  0  0  0  0  0  0  0  0  0
   20.6020   67.5220   11.2950 C   0  0  0  0  0  0  0  0  0  0  0  0
   19.7990   66.8140   12.1740 C   0  0  0  0  0  0  0  0  0  0  0  0
   19.3090   67.5360   13.2560 N   0  0  0  0  0  0  0  0  0  0  0  0
   19.5390   65.4500   11.9520 C   0  0  0  0  0  0  0  0  0  0  0  0
   18.7150   64.6440   12.8450 C   0  0  0  0  0  0  0  0  0  0  0  0
   18.0610   63.9980   13.5490 N   0  0  0  0  0  0  0  0  0  0  0  0
   21.9740   67.3820    9.2390 N   0  0  0  0  0  0  0  0  0  0  0  0
   22.5440   68.6190    9.1590 C   0  0  0  0  0  0  0  0  0  0  0  0
   22.3750   69.4540   10.0150 O   0  0  0  0  0  0  0  0  0  0  0  0
   23.3980   68.8740    7.9480 C   0  0  0  0  0  0  0  0  0  0  0  0
   21.5730   62.9380    9.4520 H   0  0  0  0  0  0  0  0  0  0  0  0
   20.1130   63.3030    8.5020 H   0  0  0  0  0  0  0  0  0  0  0  0
   19.0280   61.3890    9.4350 H   0  0  0  0  0  0  0  0  0  0  0  0
   20.4880   61.0240   10.3840 H   0  0  0  0  0  0  0  0  0  0  0  0
   21.7610   60.8760    8.3710 H   0  0  0  0  0  0  0  0  0  0  0  0
   20.3010   61.2410    7.4210 H   0  0  0  0  0  0  0  0  0  0  0  0
   20.6760   58.9660    9.3050 H   0  0  0  0  0  0  0  0  0  0  0  0
   20.7300   58.8950    7.5270 H   0  0  0  0  0  0  0  0  0  0  0  0
   19.2160   59.3310    8.3550 H   0  0  0  0  0  0  0  0  0  0  0  0
   20.8010   68.5730   11.4470 H   0  0  0  0  0  0  0  0  0  0  0  0
   18.7270   67.0820   13.9450 H   0  0  0  0  0  0  0  0  0  0  0  0
   19.5360   68.5160   13.3530 H   0  0  0  0  0  0  0  0  0  0  0  0
   22.1890   66.7630    8.4710 H   0  0  0  0  0  0  0  0  0  0  0  0
   23.4070   67.9860    7.3160 H   0  0  0  0  0  0  0  0  0  0  0  0
   24.4160   69.1050    8.2630 H   0  0  0  0  0  0  0  0  0  0  0  0
   22.9920   69.7160    7.3870 H   0  0  0  0  0  0  0  0  0  0  0  0
  1  2  1  0  0  0  0
  1  6  1  0  0  0  0
  2  3  1  0  0  0  0
  2 19  1  0  0  0  0
  2 20  1  0  0  0  0
  3  4  1  0  0  0  0
  3 21  1  0  0  0  0
  3 22  1  0  0  0  0
  4  5  1  0  0  0  0
  4 23  1  0  0  0  0
  4 24  1  0  0  0  0
  5 25  1  0  0  0  0
  5 26  1  0  0  0  0
  5 27  1  0  0  0  0
  6  7  1  0  0  0  0
  6 12  2  0  0  0  0
  7  8  2  0  0  0  0
  8  9  1  0  0  0  0
  8 15  1  0  0  0  0
  9 10  2  0  0  0  0
  9 28  1  0  0  0  0
 10 11  1  0  0  0  0
 10 12  1  0  0  0  0
 11 29  1  0  0  0  0
 11 30  1  0  0  0  0
 12 13  1  0  0  0  0
 13 14  3  0  0  0  0
 15 16  1  0  0  0  0
 15 31  1  0  0  0  0
 16 17  2  0  0  0  0
 16 18  1  0  0  0  0
 18 32  1  0  0  0  0
 18 33  1  0  0  0  0
 18 34  1  0  0  0  0
M  END
$$$$
jnk1_abbott_49_22
  MOE2024           3D
jnk1_abbott_49_22
 29 29  0  0  0  0  0  0  0  0999 V2000
   20.0970   64.8850   10.7440 C   0  0  0  0  0  0  0  0  0  0  0  0
   19.8470   63.4450   10.3170 C   0  0  0  0  0  0  0  0  0  0  0  0
   18.5570   63.4520    9.4920 C   0  0  0  0  0  0  0  0  0  0  0  0
   18.2030   62.0900    9.0430 N   0  0  0  0  0  0  0  0  0  0  0  0
   20.8680   65.6050    9.8940 N   0  0  0  0  0  0  0  0  0  0  0  0
   21.1480   66.8760   10.1880 C   0  0  0  0  0  0  0  0  0  0  0  0
   20.6570   67.5180   11.3150 C   0  0  0  0  0  0  0  0  0  0  0  0
   19.8630   66.7900   12.1860 C   0  0  0  0  0  0  0  0  0  0  0  0
   19.4250   67.4750   13.3140 N   0  0  0  0  0  0  0  0  0  0  0  0
   19.5620   65.4450   11.9120 C   0  0  0  0  0  0  0  0  0  0  0  0
   18.7450   64.6180   12.7940 C   0  0  0  0  0  0  0  0  0  0  0  0
   18.0970   63.9570   13.4890 N   0  0  0  0  0  0  0  0  0  0  0  0
   21.9640   67.4350    9.2140 N   0  0  0  0  0  0  0  0  0  0  0  0
   22.5650   68.6600    9.1690 C   0  0  0  0  0  0  0  0  0  0  0  0
   22.4410   69.4640   10.0620 O   0  0  0  0  0  0  0  0  0  0  0  0
   23.3950   68.9410    7.9470 C   0  0  0  0  0  0  0  0  0  0  0  0
   19.7300   62.8070   11.1930 H   0  0  0  0  0  0  0  0  0  0  0  0
   20.6790   63.0820    9.7120 H   0  0  0  0  0  0  0  0  0  0  0  0
   18.6970   64.0900    8.6190 H   0  0  0  0  0  0  0  0  0  0  0  0
   17.7460   63.8480   10.1030 H   0  0  0  0  0  0  0  0  0  0  0  0
   18.9500   61.7180    8.4750 H   0  0  0  0  0  0  0  0  0  0  0  0
   17.3520   62.1250    8.4990 H   0  0  0  0  0  0  0  0  0  0  0  0
   20.8870   68.5560   11.5080 H   0  0  0  0  0  0  0  0  0  0  0  0
   18.8530   67.0030   14.0000 H   0  0  0  0  0  0  0  0  0  0  0  0
   19.6790   68.4430   13.4480 H   0  0  0  0  0  0  0  0  0  0  0  0
   22.1400   66.8440    8.4140 H   0  0  0  0  0  0  0  0  0  0  0  0
   23.3630   68.0790    7.2800 H   0  0  0  0  0  0  0  0  0  0  0  0
   24.4260   69.1320    8.2440 H   0  0  0  0  0  0  0  0  0  0  0  0
   22.9970   69.8140    7.4300 H   0  0  0  0  0  0  0  0  0  0  0  0
  1  2  1  0  0  0  0
  1  5  1  0  0  0  0
  1 10  2  0  0  0  0
  2  3  1  0  0  0  0
  2 17  1  0  0  0  0
  2 18  1  0  0  0  0
  3  4  1  0  0  0  0
  3 19  1  0  0  0  0
  3 20  1  0  0  0  0
  4 21  1  0  0  0  0
  4 22  1  0  0  0  0
  5  6  2  0  0  0  0
  6  7  1  0  0  0  0
  6 13  1  0  0  0  0
  7  8  2  0  0  0  0
  7 23  1  0  0  0  0
  8  9  1  0  0  0  0
  8 10  1  0  0  0  0
  9 24  1  0  0  0  0
  9 25  1  0  0  0  0
 10 11  1  0  0  0  0
 11 12  3  0  0  0  0
 13 14  1  0  0  0  0
 13 26  1  0  0  0  0
 14 15  2  0  0  0  0
 14 16  1  0  0  0  0
 16 27  1  0  0  0  0
 16 28  1  0  0  0  0
 16 29  1  0  0  0  0
M  END
$$$$
jnk1_abbott_50_23
  MOE2024           3D
jnk1_abbott_50_23
 32 32  0  0  1  0  0  0  0  0999 V2000
   20.1070   64.8800   10.7550 C   0  0  0  0  0  0  0  0  0  0  0  0
   19.8480   63.4420   10.3220 C   0  0  3  0  0  0  0  0  0  0  0  0
   19.7110   62.5610   11.4370 C   0  0  0  0  0  0  0  0  0  0  0  0
   19.4710   61.2340   10.9680 N   0  0  0  0  0  0  0  0  0  0  0  0
   18.5600   63.4620    9.4940 C   0  0  0  0  0  0  0  0  0  0  0  0
   20.8850   65.5960    9.9080 N   0  0  0  0  0  0  0  0  0  0  0  0
   21.1740   66.8640   10.2070 C   0  0  0  0  0  0  0  0  0  0  0  0
   20.6850   67.5070   11.3350 C   0  0  0  0  0  0  0  0  0  0  0  0
   19.8830   66.7820   12.2020 C   0  0  0  0  0  0  0  0  0  0  0  0
   19.4480   67.4660   13.3310 N   0  0  0  0  0  0  0  0  0  0  0  0
   19.5730   65.4390   11.9230 C   0  0  0  0  0  0  0  0  0  0  0  0
   18.7490   64.6160   12.8000 C   0  0  0  0  0  0  0  0  0  0  0  0
   18.0930   63.9580   13.4910 N   0  0  0  0  0  0  0  0  0  0  0  0
   21.9960   67.4210    9.2360 N   0  0  0  0  0  0  0  0  0  0  0  0
   22.6060   68.6410    9.1960 C   0  0  0  0  0  0  0  0  0  0  0  0
   22.4850   69.4430   10.0910 O   0  0  0  0  0  0  0  0  0  0  0  0
   23.4410   68.9200    7.9770 C   0  0  0  0  0  0  0  0  0  0  0  0
   20.6930   63.0680    9.7450 H   0  0  0  0  0  0  0  0  0  0  0  0
   18.8740   62.8850   12.0560 H   0  0  0  0  0  0  0  0  0  0  0  0
   20.6270   62.5780   12.0280 H   0  0  0  0  0  0  0  0  0  0  0  0
   18.6230   61.2180   10.4210 H   0  0  0  0  0  0  0  0  0  0  0  0
   19.3750   60.6100   11.7570 H   0  0  0  0  0  0  0  0  0  0  0  0
   17.7410   63.8410   10.1050 H   0  0  0  0  0  0  0  0  0  0  0  0
   18.3270   62.4510    9.1600 H   0  0  0  0  0  0  0  0  0  0  0  0
   18.6950   64.1080    8.6270 H   0  0  0  0  0  0  0  0  0  0  0  0
   20.9210   68.5420   11.5310 H   0  0  0  0  0  0  0  0  0  0  0  0
   18.8710   66.9970   14.0140 H   0  0  0  0  0  0  0  0  0  0  0  0
   19.7090   68.4320   13.4680 H   0  0  0  0  0  0  0  0  0  0  0  0
   22.1700   66.8310    8.4350 H   0  0  0  0  0  0  0  0  0  0  0  0
   23.4050   68.0600    7.3070 H   0  0  0  0  0  0  0  0  0  0  0  0
   24.4730   69.1030    8.2770 H   0  0  0  0  0  0  0  0  0  0  0  0
   23.0510   69.7980    7.4620 H   0  0  0  0  0  0  0  0  0  0  0  0
  1  2  1  0  0  0  0
  1  6  1  0  0  0  0
  1 11  2  0  0  0  0
  2  3  1  0  0  0  0
  2  5  1  0  0  0  0
  2 18  1  0  0  0  0
  3  4  1  0  0  0  0
  3 19  1  0  0  0  0
  3 20  1  0  0  0  0
  4 21  1  0  0  0  0
  4 22  1  0  0  0  0
  5 23  1  0  0  0  0
  5 24  1  0  0  0  0
  5 25  1  0  0  0  0
  6  7  2  0  0  0  0
  7  8  1  0  0  0  0
  7 14  1  0  0  0  0
  8  9  2  0  0  0  0
  8 26  1  0  0  0  0
  9 10  1  0  0  0  0
  9 11  1  0  0  0  0
 10 27  1  0  0  0  0
 10 28  1  0  0  0  0
 11 12  1  0  0  0  0
 12 13  3  0  0  0  0
 14 15  1  0  0  0  0
 14 29  1  0  0  0  0
 15 16  2  0  0  0  0
 15 17  1  0  0  0  0
 17 30  1  0  0  0  0
 17 31  1  0  0  0  0
 17 32  1  0  0  0  0
M  END
$$$$
jnk1_abbott_51_24
  MOE2024           3D
jnk1_abbott_51_24
 31 32  0  0  0  0  0  0  0  0999 V2000
   20.0310   64.9200   10.6660 C   0  0  0  0  0  0  0  0  0  0  0  0
   20.7940   65.6520    9.8190 N   0  0  0  0  0  0  0  0  0  0  0  0
   21.1200   66.9020   10.1540 C   0  0  0  0  0  0  0  0  0  0  0  0
   20.6840   67.5110   11.3220 C   0  0  0  0  0  0  0  0  0  0  0  0
   19.8990   66.7700   12.1890 C   0  0  0  0  0  0  0  0  0  0  0  0
   19.5180   67.4190   13.3580 N   0  0  0  0  0  0  0  0  0  0  0  0
   19.5510   65.4450   11.8720 C   0  0  0  0  0  0  0  0  0  0  0  0
   18.7400   64.6060   12.7470 C   0  0  0  0  0  0  0  0  0  0  0  0
   18.0960   63.9350   13.4370 N   0  0  0  0  0  0  0  0  0  0  0  0
   21.9190   67.4770    9.1750 N   0  0  0  0  0  0  0  0  0  0  0  0
   22.5460   68.6880    9.1520 C   0  0  0  0  0  0  0  0  0  0  0  0
   22.4650   69.4640   10.0760 O   0  0  0  0  0  0  0  0  0  0  0  0
   23.3450   68.9930    7.9160 C   0  0  0  0  0  0  0  0  0  0  0  0
   19.1160   60.9290    9.4950 C   0  0  0  0  0  0  0  0  0  0  0  0
   18.2690   61.9720    9.1320 C   0  0  0  0  0  0  0  0  0  0  0  0
   18.5710   63.2770    9.5070 C   0  0  0  0  0  0  0  0  0  0  0  0
   19.7230   63.5530   10.2540 C   0  0  0  0  0  0  0  0  0  0  0  0
   20.5710   62.4960   10.6070 C   0  0  0  0  0  0  0  0  0  0  0  0
   20.2680   61.1930   10.2310 C   0  0  0  0  0  0  0  0  0  0  0  0
   20.9500   68.5330   11.5480 H   0  0  0  0  0  0  0  0  0  0  0  0
   18.9550   66.9360   14.0440 H   0  0  0  0  0  0  0  0  0  0  0  0
   19.8040   68.3740   13.5210 H   0  0  0  0  0  0  0  0  0  0  0  0
   22.0580   66.9100    8.3510 H   0  0  0  0  0  0  0  0  0  0  0  0
   23.2750   68.1560    7.2220 H   0  0  0  0  0  0  0  0  0  0  0  0
   24.3890   69.1530    8.1880 H   0  0  0  0  0  0  0  0  0  0  0  0
   22.9520   69.8920    7.4410 H   0  0  0  0  0  0  0  0  0  0  0  0
   18.8800   59.9160    9.2060 H   0  0  0  0  0  0  0  0  0  0  0  0
   17.3770   61.7680    8.5590 H   0  0  0  0  0  0  0  0  0  0  0  0
   17.9130   64.0830    9.2200 H   0  0  0  0  0  0  0  0  0  0  0  0
   21.4680   62.6960   11.1750 H   0  0  0  0  0  0  0  0  0  0  0  0
   20.9270   60.3840   10.5100 H   0  0  0  0  0  0  0  0  0  0  0  0
  1  2  1  0  0  0  0
  1  7  2  0  0  0  0
  1 17  1  0  0  0  0
  2  3  2  0  0  0  0
  3  4  1  0  0  0  0
  3 10  1  0  0  0  0
  4  5  2  0  0  0  0
  4 20  1  0  0  0  0
  5  6  1  0  0  0  0
  5  7  1  0  0  0  0
  6 21  1  0  0  0  0
  6 22  1  0  0  0  0
  7  8  1  0  0  0  0
  8  9  3  0  0  0  0
 10 11  1  0  0  0  0
 10 23  1  0  0  0  0
 11 12  2  0  0  0  0
 11 13  1  0  0  0  0
 13 24  1  0  0  0  0
 13 25  1  0  0  0  0
 13 26  1  0  0  0  0
 14 15  1  0  0  0  0
 14 19  2  0  0  0  0
 14 27  1  0  0  0  0
 15 16  2  0  0  0  0
 15 28  1  0  0  0  0
 16 17  1  0  0  0  0
 16 29  1  0  0  0  0
 17 18  2  0  0  0  0
 18 19  1  0  0  0  0
 18 30  1  0  0  0  0
 19 31  1  0  0  0  0
M  END
$$$$
jnk1_abbott_52_25
  MOE2024           3D
jnk1_abbott_52_25
 30 30  0  0  0  0  0  0  0  0999 V2000
   20.1750   64.8690   10.7850 C   0  0  0  0  0  0  0  0  0  0  0  0
   19.9510   63.4870   10.5070 C   0  0  0  0  0  0  0  0  0  0  0  0
   20.6410   63.1240    9.3110 C   0  0  0  0  0  0  0  0  0  0  0  0
   20.4170   61.7420    9.0320 C   0  0  0  0  0  0  0  0  0  0  0  0
   20.9520   65.5920    9.9430 N   0  0  0  0  0  0  0  0  0  0  0  0
   21.1840   66.8780   10.2150 C   0  0  0  0  0  0  0  0  0  0  0  0
   20.6370   67.5310   11.3100 C   0  0  0  0  0  0  0  0  0  0  0  0
   19.8370   66.7990   12.1730 C   0  0  0  0  0  0  0  0  0  0  0  0
   19.3420   67.4950   13.2690 N   0  0  0  0  0  0  0  0  0  0  0  0
   19.5860   65.4380   11.9220 C   0  0  0  0  0  0  0  0  0  0  0  0
   18.7670   64.6080   12.7960 C   0  0  0  0  0  0  0  0  0  0  0  0
   18.1160   63.9430   13.4860 N   0  0  0  0  0  0  0  0  0  0  0  0
   22.0140   67.4380    9.2540 N   0  0  0  0  0  0  0  0  0  0  0  0
   22.5720   68.6820    9.1920 C   0  0  0  0  0  0  0  0  0  0  0  0
   22.3850   69.5060   10.0550 O   0  0  0  0  0  0  0  0  0  0  0  0
   23.4340   68.9570    7.9910 C   0  0  0  0  0  0  0  0  0  0  0  0
   18.8830   63.3110   10.3770 H   0  0  0  0  0  0  0  0  0  0  0  0
   20.3200   62.8840   11.3370 H   0  0  0  0  0  0  0  0  0  0  0  0
   21.7090   63.3000    9.4400 H   0  0  0  0  0  0  0  0  0  0  0  0
   20.2720   63.7260    8.4810 H   0  0  0  0  0  0  0  0  0  0  0  0
   20.7870   61.1390    9.8620 H   0  0  0  0  0  0  0  0  0  0  0  0
   20.9440   61.4650    8.1190 H   0  0  0  0  0  0  0  0  0  0  0  0
   19.3490   61.5660    8.9030 H   0  0  0  0  0  0  0  0  0  0  0  0
   20.8290   68.5790   11.4850 H   0  0  0  0  0  0  0  0  0  0  0  0
   18.7620   67.0220   13.9480 H   0  0  0  0  0  0  0  0  0  0  0  0
   19.5620   68.4740   13.3880 H   0  0  0  0  0  0  0  0  0  0  0  0
   22.2400   66.8310    8.4790 H   0  0  0  0  0  0  0  0  0  0  0  0
   23.4580   68.0760    7.3510 H   0  0  0  0  0  0  0  0  0  0  0  0
   24.4460   69.1960    8.3180 H   0  0  0  0  0  0  0  0  0  0  0  0
   23.0240   69.8000    7.4350 H   0  0  0  0  0  0  0  0  0  0  0  0
  1  2  1  0  0  0  0
  1  5  1  0  0  0  0
  1 10  2  0  0  0  0
  2  3  1  0  0  0  0
  2 17  1  0  0  0  0
  2 18  1  0  0  0  0
  3  4  1  0  0  0  0
  3 19  1  0  0  0  0
  3 20  1  0  0  0  0
  4 21  1  0  0  0  0
  4 22  1  0  0  0  0
  4 23  1  0  0  0  0
  5  6  2  0  0  0  0
  6  7  1  0  0  0  0
  6 13  1  0  0  0  0
  7  8  2  0  0  0  0
  7 24  1  0  0  0  0
  8  9  1  0  0  0  0
  8 10  1  0  0  0  0
  9 25  1  0  0  0  0
  9 26  1  0  0  0  0
 10 11  1  0  0  0  0
 11 12  3  0  0  0  0
 13 14  1  0  0  0  0
 13 27  1  0  0  0  0
 14 15  2  0  0  0  0
 14 16  1  0  0  0  0
 16 28  1  0  0  0  0
 16 29  1  0  0  0  0
 16 30  1  0  0  0  0
M  END
$$$$
jnk1_abbott_53_26
  MOE2024           3D
jnk1_abbott_53_26
 39 40  0  0  0  0  0  0  0  0999 V2000
   20.0880   64.9220   10.7670 C   0  0  0  0  0  0  0  0  0  0  0  0
   20.8690   65.6230    9.9010 N   0  0  0  0  0  0  0  0  0  0  0  0
   21.1280   66.9110   10.1770 C   0  0  0  0  0  0  0  0  0  0  0  0
   20.6020   67.5710   11.2780 C   0  0  0  0  0  0  0  0  0  0  0  0
   19.8100   66.8550   12.1580 C   0  0  0  0  0  0  0  0  0  0  0  0
   19.3410   67.5640   13.2580 N   0  0  0  0  0  0  0  0  0  0  0  0
   19.5420   65.4980   11.9190 C   0  0  0  0  0  0  0  0  0  0  0  0
   18.7410   64.6760   12.8190 C   0  0  0  0  0  0  0  0  0  0  0  0
   18.1070   64.0160   13.5270 N   0  0  0  0  0  0  0  0  0  0  0  0
   21.9690   67.4550    9.2270 N   0  0  0  0  0  0  0  0  0  0  0  0
   22.6540   68.6010    9.2320 C   0  0  0  0  0  0  0  0  0  0  0  0
   22.6490   69.4160   10.1510 O   0  0  0  0  0  0  0  0  0  0  0  0
   23.5600   68.8400    8.0300 C   0  0  0  0  0  0  0  0  0  0  0  0
   22.8220   68.8480    6.6930 C   0  0  0  0  0  0  0  0  0  0  0  0
   22.5100   67.6460    6.0420 C   0  0  0  0  0  0  0  0  0  0  0  0
   22.8520   66.4660    6.6790 O   0  0  0  0  0  0  0  0  0  0  0  0
   22.3930   65.2220    6.1540 C   0  0  0  0  0  0  0  0  0  0  0  0
   21.8780   67.7020    4.7930 C   0  0  0  0  0  0  0  0  0  0  0  0
   21.5330   68.9260    4.2220 C   0  0  0  0  0  0  0  0  0  0  0  0
   21.8180   70.1280    4.8790 C   0  0  0  0  0  0  0  0  0  0  0  0
   22.4710   70.0740    6.1180 C   0  0  0  0  0  0  0  0  0  0  0  0
   21.4230   71.3050    4.2730 O   0  0  0  0  0  0  0  0  0  0  0  0
   22.0420   72.5300    4.6600 C   0  0  0  0  0  0  0  0  0  0  0  0
   19.8820   63.8830   10.5560 H   0  0  0  0  0  0  0  0  0  0  0  0
   20.8070   68.6180   11.4450 H   0  0  0  0  0  0  0  0  0  0  0  0
   18.7670   67.1020   13.9490 H   0  0  0  0  0  0  0  0  0  0  0  0
   19.5730   68.5400   13.3660 H   0  0  0  0  0  0  0  0  0  0  0  0
   22.0850   66.8960    8.3940 H   0  0  0  0  0  0  0  0  0  0  0  0
   24.3110   68.0500    8.0030 H   0  0  0  0  0  0  0  0  0  0  0  0
   24.0520   69.8040    8.1570 H   0  0  0  0  0  0  0  0  0  0  0  0
   22.7570   64.4070    6.7800 H   0  0  0  0  0  0  0  0  0  0  0  0
   22.7690   65.0960    5.1390 H   0  0  0  0  0  0  0  0  0  0  0  0
   21.3030   65.2130    6.1420 H   0  0  0  0  0  0  0  0  0  0  0  0
   21.6550   66.7860    4.2660 H   0  0  0  0  0  0  0  0  0  0  0  0
   21.0390   68.9470    3.2620 H   0  0  0  0  0  0  0  0  0  0  0  0
   22.7070   70.9920    6.6360 H   0  0  0  0  0  0  0  0  0  0  0  0
   21.6130   73.3510    4.0850 H   0  0  0  0  0  0  0  0  0  0  0  0
   23.1130   72.4720    4.4680 H   0  0  0  0  0  0  0  0  0  0  0  0
   21.8720   72.7020    5.7230 H   0  0  0  0  0  0  0  0  0  0  0  0
  1  2  1  0  0  0  0
  1  7  2  0  0  0  0
  1 24  1  0  0  0  0
  2  3  2  0  0  0  0
  3  4  1  0  0  0  0
  3 10  1  0  0  0  0
  4  5  2  0  0  0  0
  4 25  1  0  0  0  0
  5  6  1  0  0  0  0
  5  7  1  0  0  0  0
  6 26  1  0  0  0  0
  6 27  1  0  0  0  0
  7  8  1  0  0  0  0
  8  9  3  0  0  0  0
 10 11  1  0  0  0  0
 10 28  1  0  0  0  0
 11 12  2  0  0  0  0
 11 13  1  0  0  0  0
 13 14  1  0  0  0  0
 13 29  1  0  0  0  0
 13 30  1  0  0  0  0
 14 15  1  0  0  0  0
 14 21  2  0  0  0  0
 15 16  1  0  0  0  0
 15 18  2  0  0  0  0
 16 17  1  0  0  0  0
 17 31  1  0  0  0  0
 17 32  1  0  0  0  0
 17 33  1  0  0  0  0
 18 19  1  0  0  0  0
 18 34  1  0  0  0  0
 19 20  2  0  0  0  0
 19 35  1  0  0  0  0
 20 21  1  0  0  0  0
 20 22  1  0  0  0  0
 21 36  1  0  0  0  0
 22 23  1  0  0  0  0
 23 37  1  0  0  0  0
 23 38  1  0  0  0  0
 23 39  1  0  0  0  0
M  END
$$$$
jnk1_abbott_54_39
  MOE2024           3D
jnk1_abbott_54_39
 29 29  0  0  0  0  0  0  0  0999 V2000
   20.1240   61.4310    9.4490 C   0  0  0  0  0  0  0  0  0  0  0  0
   20.5620   62.8970    9.4910 C   0  0  0  0  0  0  0  0  0  0  0  0
   19.9390   63.5070   10.6170 O   0  0  0  0  0  0  0  0  0  0  0  0
   20.1060   64.8620   10.8430 C   0  0  0  0  0  0  0  0  0  0  0  0
   20.8870   65.5500    9.9670 N   0  0  0  0  0  0  0  0  0  0  0  0
   21.0850   66.8600   10.1830 C   0  0  0  0  0  0  0  0  0  0  0  0
   20.4960   67.5530   11.2310 C   0  0  0  0  0  0  0  0  0  0  0  0
   19.7030   66.8510   12.1210 C   0  0  0  0  0  0  0  0  0  0  0  0
   19.0930   67.5290   13.2200 C   0  0  0  0  0  0  0  0  0  0  0  0
   19.4980   65.4740   11.9460 C   0  0  0  0  0  0  0  0  0  0  0  0
   18.7000   64.6660   12.8610 C   0  0  0  0  0  0  0  0  0  0  0  0
   18.0690   64.0180   13.5830 N   0  0  0  0  0  0  0  0  0  0  0  0
   21.9360   67.3890    9.2330 N   0  0  0  0  0  0  0  0  0  0  0  0
   22.5740   68.5620    9.1990 C   0  0  0  0  0  0  0  0  0  0  0  0
   22.5050   69.4220   10.0750 O   0  0  0  0  0  0  0  0  0  0  0  0
   23.5100   68.7760    8.0160 C   0  0  0  0  0  0  0  0  0  0  0  0
   20.5880   60.9380    8.5950 H   0  0  0  0  0  0  0  0  0  0  0  0
   19.0400   61.3790    9.3550 H   0  0  0  0  0  0  0  0  0  0  0  0
   20.4330   60.9330   10.3680 H   0  0  0  0  0  0  0  0  0  0  0  0
   20.2520   63.4030    8.5760 H   0  0  0  0  0  0  0  0  0  0  0  0
   21.6460   62.9580    9.5900 H   0  0  0  0  0  0  0  0  0  0  0  0
   20.6530   68.6150   11.3490 H   0  0  0  0  0  0  0  0  0  0  0  0
   19.3650   68.5840   13.1920 H   0  0  0  0  0  0  0  0  0  0  0  0
   19.4400   67.0900   14.1560 H   0  0  0  0  0  0  0  0  0  0  0  0
   18.0100   67.4310   13.1520 H   0  0  0  0  0  0  0  0  0  0  0  0
   22.1020   66.7930    8.4350 H   0  0  0  0  0  0  0  0  0  0  0  0
   23.4460   67.9210    7.3420 H   0  0  0  0  0  0  0  0  0  0  0  0
   24.5340   68.8780    8.3760 H   0  0  0  0  0  0  0  0  0  0  0  0
   23.2210   69.6820    7.4830 H   0  0  0  0  0  0  0  0  0  0  0  0
  1  2  1  0  0  0  0
  1 17  1  0  0  0  0
  1 18  1  0  0  0  0
  1 19  1  0  0  0  0
  2  3  1  0  0  0  0
  2 20  1  0  0  0  0
  2 21  1  0  0  0  0
  3  4  1  0  0  0  0
  4  5  1  0  0  0  0
  4 10  2  0  0  0  0
  5  6  2  0  0  0  0
  6  7  1  0  0  0  0
  6 13  1  0  0  0  0
  7  8  2  0  0  0  0
  7 22  1  0  0  0  0
  8  9  1  0  0  0  0
  8 10  1  0  0  0  0
  9 23  1  0  0  0  0
  9 24  1  0  0  0  0
  9 25  1  0  0  0  0
 10 11  1  0  0  0  0
 11 12  3  0  0  0  0
 13 14  1  0  0  0  0
 13 26  1  0  0  0  0
 14 15  2  0  0  0  0
 14 16  1  0  0  0  0
 16 27  1  0  0  0  0
 16 28  1  0  0  0  0
 16 29  1  0  0  0  0
M  END
$$$$
jnk1_abbott_55_46
  MOE2024           3D
jnk1_abbott_55_46
 25 25  0  0  0  0  0  0  0  0999 V2000
   20.1230   61.4420    9.5730 C   0  0  0  0  0  0  0  0  0  0  0  0
   20.5610   62.9080    9.5840 C   0  0  0  0  0  0  0  0  0  0  0  0
   19.9550   63.5350   10.7110 O   0  0  0  0  0  0  0  0  0  0  0  0
   20.1250   64.8940   10.9130 C   0  0  0  0  0  0  0  0  0  0  0  0
   20.8910   65.5690   10.0130 N   0  0  0  0  0  0  0  0  0  0  0  0
   21.0910   66.8820   10.2050 C   0  0  0  0  0  0  0  0  0  0  0  0
   20.5190   67.5910   11.2510 C   0  0  0  0  0  0  0  0  0  0  0  0
   19.7430   66.9030   12.1660 C   0  0  0  0  0  0  0  0  0  0  0  0
   19.5350   65.5220   12.0160 C   0  0  0  0  0  0  0  0  0  0  0  0
   21.9250   67.3960    9.2330 N   0  0  0  0  0  0  0  0  0  0  0  0
   22.5620   68.5680    9.1690 C   0  0  0  0  0  0  0  0  0  0  0  0
   22.5070   69.4420   10.0320 O   0  0  0  0  0  0  0  0  0  0  0  0
   23.4780   68.7640    7.9670 C   0  0  0  0  0  0  0  0  0  0  0  0
   20.5720   60.9350    8.7190 H   0  0  0  0  0  0  0  0  0  0  0  0
   19.0370   61.3870    9.4980 H   0  0  0  0  0  0  0  0  0  0  0  0
   20.4480   60.9580   10.4950 H   0  0  0  0  0  0  0  0  0  0  0  0
   20.2350   63.3990    8.6670 H   0  0  0  0  0  0  0  0  0  0  0  0
   21.6460   62.9710    9.6640 H   0  0  0  0  0  0  0  0  0  0  0  0
   20.6770   68.6550   11.3500 H   0  0  0  0  0  0  0  0  0  0  0  0
   19.2950   67.4280   12.9970 H   0  0  0  0  0  0  0  0  0  0  0  0
   18.9430   64.9650   12.7270 H   0  0  0  0  0  0  0  0  0  0  0  0
   22.0790   66.7880    8.4410 H   0  0  0  0  0  0  0  0  0  0  0  0
   23.4030   67.9000    7.3080 H   0  0  0  0  0  0  0  0  0  0  0  0
   24.5070   68.8730    8.3090 H   0  0  0  0  0  0  0  0  0  0  0  0
   23.1790   69.6610    7.4250 H   0  0  0  0  0  0  0  0  0  0  0  0
  1  2  1  0  0  0  0
  1 14  1  0  0  0  0
  1 15  1  0  0  0  0
  1 16  1  0  0  0  0
  2  3  1  0  0  0  0
  2 17  1  0  0  0  0
  2 18  1  0  0  0  0
  3  4  1  0  0  0  0
  4  5  1  0  0  0  0
  4  9  2  0  0  0  0
  5  6  2  0  0  0  0
  6  7  1  0  0  0  0
  6 10  1  0  0  0  0
  7  8  2  0  0  0  0
  7 19  1  0  0  0  0
  8  9  1  0  0  0  0
  8 20  1  0  0  0  0
  9 21  1  0  0  0  0
 10 11  1  0  0  0  0
 10 22  1  0  0  0  0
 11 12  2  0  0  0  0
 11 13  1  0  0  0  0
 13 23  1  0  0  0  0
 13 24  1  0  0  0  0
 13 25  1  0  0  0  0
M  END
$$$$
jnk1_abbott_56_43
  MOE2024           3D
jnk1_abbott_56_43
 28 28  0  0  0  0  0  0  0  0999 V2000
   20.0210   61.3820    9.5680 C   0  0  0  0  0  0  0  0  0  0  0  0
   20.5010   62.8260    9.4400 C   0  0  0  0  0  0  0  0  0  0  0  0
   19.9300   63.5080   10.5790 O   0  0  0  0  0  0  0  0  0  0  0  0
   20.1190   64.8440   10.8170 C   0  0  0  0  0  0  0  0  0  0  0  0
   20.8870   65.5420    9.9360 N   0  0  0  0  0  0  0  0  0  0  0  0
   21.0880   66.8490   10.1630 C   0  0  0  0  0  0  0  0  0  0  0  0
   20.5170   67.5310   11.2280 C   0  0  0  0  0  0  0  0  0  0  0  0
   19.7370   66.8190   12.1300 C   0  0  0  0  0  0  0  0  0  0  0  0
   19.1770   67.5120   13.2000 N   0  0  0  0  0  0  0  0  0  0  0  0
   19.5300   65.4440   11.9370 C   0  0  0  0  0  0  0  0  0  0  0  0
   21.9020   67.4060    9.1850 N   0  0  0  0  0  0  0  0  0  0  0  0
   22.5570   68.6020    9.1870 C   0  0  0  0  0  0  0  0  0  0  0  0
   22.4940   69.3550   10.1310 O   0  0  0  0  0  0  0  0  0  0  0  0
   23.3710   68.9130    7.9620 C   0  0  0  0  0  0  0  0  0  0  0  0
   18.7430   64.6690   12.8500 C   0  0  0  0  0  0  0  0  0  0  0  0
   18.1170   64.0700   13.5970 N   0  0  0  0  0  0  0  0  0  0  0  0
   20.4130   60.7940    8.7380 H   0  0  0  0  0  0  0  0  0  0  0  0
   18.9320   61.3570    9.5490 H   0  0  0  0  0  0  0  0  0  0  0  0
   20.3780   60.9630   10.5090 H   0  0  0  0  0  0  0  0  0  0  0  0
   20.1440   63.2680    8.5100 H   0  0  0  0  0  0  0  0  0  0  0  0
   21.5890   62.8730    9.4700 H   0  0  0  0  0  0  0  0  0  0  0  0
   20.6760   68.5920   11.3520 H   0  0  0  0  0  0  0  0  0  0  0  0
   18.5990   67.0260   13.8710 H   0  0  0  0  0  0  0  0  0  0  0  0
   19.3480   68.5020   13.3050 H   0  0  0  0  0  0  0  0  0  0  0  0
   22.0260   66.8460    8.3540 H   0  0  0  0  0  0  0  0  0  0  0  0
   23.2770   68.0960    7.2470 H   0  0  0  0  0  0  0  0  0  0  0  0
   24.4170   69.0330    8.2420 H   0  0  0  0  0  0  0  0  0  0  0  0
   23.0080   69.8360    7.5090 H   0  0  0  0  0  0  0  0  0  0  0  0
  1  2  1  0  0  0  0
  1 17  1  0  0  0  0
  1 18  1  0  0  0  0
  1 19  1  0  0  0  0
  2  3  1  0  0  0  0
  2 20  1  0  0  0  0
  2 21  1  0  0  0  0
  3  4  1  0  0  0  0
  4  5  1  0  0  0  0
  4 10  2  0  0  0  0
  5  6  2  0  0  0  0
  6  7  1  0  0  0  0
  6 11  1  0  0  0  0
  7  8  2  0  0  0  0
  7 22  1  0  0  0  0
  8  9  1  0  0  0  0
  8 10  1  0  0  0  0
  9 23  1  0  0  0  0
  9 24  1  0  0  0  0
 10 15  1  0  0  0  0
 11 12  1  0  0  0  0
 11 25  1  0  0  0  0
 12 13  2  0  0  0  0
 12 14  1  0  0  0  0
 14 26  1  0  0  0  0
 14 27  1  0  0  0  0
 14 28  1  0  0  0  0
 15 16  3  0  0  0  0
M  END
$$$$
jnk1_abbott_57_41
  MOE2024           3D
jnk1_abbott_57_41
 37 37  0  0  0  0  0  0  0  0999 V2000
   20.1060   61.3720    9.6130 C   0  0  0  0  0  0  0  0  0  0  0  0
   20.5350   62.8290    9.4550 C   0  0  0  0  0  0  0  0  0  0  0  0
   19.9430   63.5130   10.5810 O   0  0  0  0  0  0  0  0  0  0  0  0
   20.1080   64.8560   10.8060 C   0  0  0  0  0  0  0  0  0  0  0  0
   20.8540   65.5590    9.9110 N   0  0  0  0  0  0  0  0  0  0  0  0
   21.0350   66.8720   10.1260 C   0  0  0  0  0  0  0  0  0  0  0  0
   20.4630   67.5520   11.1910 C   0  0  0  0  0  0  0  0  0  0  0  0
   19.7030   66.8330   12.1070 C   0  0  0  0  0  0  0  0  0  0  0  0
   19.1420   67.5260   13.1770 N   0  0  0  0  0  0  0  0  0  0  0  0
   19.5200   65.4530   11.9270 C   0  0  0  0  0  0  0  0  0  0  0  0
   21.8203   67.4404    9.1325 N   0  0  0  0  0  0  0  0  0  0  0  0
   22.4669   68.6439    9.1223 C   0  0  0  0  0  0  0  0  0  0  0  0
   22.4275   69.3866   10.0764 O   0  0  0  0  0  0  0  0  0  0  0  0
   23.2150   68.9972    7.8561 C   0  0  0  0  0  0  0  0  0  0  0  0
   22.1788   69.6025    6.8824 C   0  0  0  0  0  0  0  0  0  0  0  0
   22.9312   69.9639    5.5933 C   0  0  0  0  0  0  0  0  0  0  0  0
   21.9649   70.5661    4.5688 C   0  0  0  0  0  0  0  0  0  0  0  0
   18.7560   64.6720   12.8540 C   0  0  0  0  0  0  0  0  0  0  0  0
   18.1490   64.0670   13.6120 N   0  0  0  0  0  0  0  0  0  0  0  0
   20.5170   60.7810    8.7940 H   0  0  0  0  0  0  0  0  0  0  0  0
   19.0180   61.3090    9.5970 H   0  0  0  0  0  0  0  0  0  0  0  0
   20.4780   60.9850   10.5620 H   0  0  0  0  0  0  0  0  0  0  0  0
   20.1610   63.2390    8.5170 H   0  0  0  0  0  0  0  0  0  0  0  0
   21.6210   62.9140    9.4820 H   0  0  0  0  0  0  0  0  0  0  0  0
   20.6920   69.2804   11.3778 Cl  0  0  0  0  0  0  0  0  0  0  0  0
   18.5800   67.0340   13.8580 H   0  0  0  0  0  0  0  0  0  0  0  0
   19.2970   68.5190   13.2730 H   0  0  0  0  0  0  0  0  0  0  0  0
   21.9552   66.8373    8.3161 H   0  0  0  0  0  0  0  0  0  0  0  0
   23.6416   68.1002    7.4297 H   0  0  0  0  0  0  0  0  0  0  0  0
   23.9565   69.7453    8.1020 H   0  0  0  0  0  0  0  0  0  0  0  0
   21.7378   70.5011    7.3215 H   0  0  0  0  0  0  0  0  0  0  0  0
   21.3895   68.8806    6.6630 H   0  0  0  0  0  0  0  0  0  0  0  0
   23.3903   69.0701    5.1655 H   0  0  0  0  0  0  0  0  0  0  0  0
   23.7150   70.6924    5.8130 H   0  0  0  0  0  0  0  0  0  0  0  0
   21.1807   69.8483    4.3240 H   0  0  0  0  0  0  0  0  0  0  0  0
   22.5088   70.8187    3.6577 H   0  0  0  0  0  0  0  0  0  0  0  0
   21.5101   71.4730    4.9708 H   0  0  0  0  0  0  0  0  0  0  0  0
  1  2  1  0  0  0  0
  1 20  1  0  0  0  0
  1 21  1  0  0  0  0
  1 22  1  0  0  0  0
  2  3  1  0  0  0  0
  2 23  1  0  0  0  0
  2 24  1  0  0  0  0
  3  4  1  0  0  0  0
  4  5  1  0  0  0  0
  4 10  2  0  0  0  0
  5  6  2  0  0  0  0
  6  7  1  0  0  0  0
  6 11  1  0  0  0  0
  7  8  2  0  0  0  0
  7 25  1  0  0  0  0
  8  9  1  0  0  0  0
  8 10  1  0  0  0  0
  9 26  1  0  0  0  0
  9 27  1  0  0  0  0
 10 18  1  0  0  0  0
 11 12  1  0  0  0  0
 11 28  1  0  0  0  0
 12 13  2  0  0  0  0
 12 14  1  0  0  0  0
 14 15  1  0  0  0  0
 14 29  1  0  0  0  0
 14 30  1  0  0  0  0
 15 16  1  0  0  0  0
 15 31  1  0  0  0  0
 15 32  1  0  0  0  0
 16 17  1  0  0  0  0
 16 33  1  0  0  0  0
 16 34  1  0  0  0  0
 17 35  1  0  0  0  0
 17 36  1  0  0  0  0
 17 37  1  0  0  0  0
 18 19  3  0  0  0  0
M  END
$$$$
jnk1_abbott_58_42.X
  MOE2024           3D
jnk1_abbott_58_42
 40 40  0  0  0  0  0  0  0  0999 V2000
   18.0490   60.5150    8.7210 C   0  0  0  0  0  0  0  0  0  0  0  0
   18.7990   61.8420    8.8020 C   0  0  0  0  0  0  0  0  0  0  0  0
   18.3450   62.4500   10.0320 O   0  0  0  0  0  0  0  0  0  0  0  0
   18.7780   63.6830   10.4470 C   0  0  0  0  0  0  0  0  0  0  0  0
   19.7170   64.3100    9.6880 N   0  0  0  0  0  0  0  0  0  0  0  0
   20.1600   65.5130   10.0870 C   0  0  0  0  0  0  0  0  0  0  0  0
   19.6750   66.1640   11.2110 C   0  0  0  0  0  0  0  0  0  0  0  0
   18.7160   65.5250   11.9890 C   0  0  0  0  0  0  0  0  0  0  0  0
   18.2410   66.1830   13.1210 N   0  0  0  0  0  0  0  0  0  0  0  0
   18.2560   64.2520   11.6150 C   0  0  0  0  0  0  0  0  0  0  0  0
   21.1660   66.0840    9.2790 N   0  0  0  0  0  0  0  0  0  0  0  0
   21.0460   67.3780    8.7850 C   0  0  0  0  0  0  0  0  0  0  0  0
   20.0940   68.0550    9.1250 O   0  0  0  0  0  0  0  0  0  0  0  0
   22.1150   67.9030    7.8290 C   0  0  0  0  0  0  0  0  0  0  0  0
   22.2780   65.2030    8.8610 C   0  0  0  0  0  0  0  0  0  0  0  0
   21.7120   69.3050    7.3060 C   0  0  0  0  0  0  0  0  0  0  0  0
   22.8320   69.8370    6.3920 C   0  0  0  0  0  0  0  0  0  0  0  0
   22.9300   69.1000    5.0490 C   0  0  0  0  0  0  0  0  0  0  0  0
   17.2810   63.5490   12.3950 C   0  0  0  0  0  0  0  0  0  0  0  0
   16.5100   63.0020   13.0390 N   0  0  0  0  0  0  0  0  0  0  0  0
   18.3380   59.9890    7.8120 H   0  0  0  0  0  0  0  0  0  0  0  0
   16.9760   60.7040    8.7060 H   0  0  0  0  0  0  0  0  0  0  0  0
   18.2980   59.9030    9.5890 H   0  0  0  0  0  0  0  0  0  0  0  0
   18.5540   62.4740    7.9490 H   0  0  0  0  0  0  0  0  0  0  0  0
   19.8760   61.6740    8.8320 H   0  0  0  0  0  0  0  0  0  0  0  0
   20.0340   67.1470   11.4770 H   0  0  0  0  0  0  0  0  0  0  0  0
   17.5430   65.7450   13.7050 H   0  0  0  0  0  0  0  0  0  0  0  0
   18.5950   67.0980   13.3600 H   0  0  0  0  0  0  0  0  0  0  0  0
   22.1760   67.2170    6.9980 H   0  0  0  0  0  0  0  0  0  0  0  0
   23.0430   67.9830    8.3770 H   0  0  0  0  0  0  0  0  0  0  0  0
   22.3060   64.3510    9.5290 H   0  0  0  0  0  0  0  0  0  0  0  0
   23.2050   65.7530    8.9370 H   0  0  0  0  0  0  0  0  0  0  0  0
   22.0750   64.8840    7.8480 H   0  0  0  0  0  0  0  0  0  0  0  0
   21.5900   69.9860    8.1510 H   0  0  0  0  0  0  0  0  0  0  0  0
   20.7690   69.2540    6.7580 H   0  0  0  0  0  0  0  0  0  0  0  0
   23.7920   69.7890    6.9080 H   0  0  0  0  0  0  0  0  0  0  0  0
   22.6230   70.8890    6.1840 H   0  0  0  0  0  0  0  0  0  0  0  0
   23.2630   68.0730    5.1920 H   0  0  0  0  0  0  0  0  0  0  0  0
   23.6530   69.6090    4.4090 H   0  0  0  0  0  0  0  0  0  0  0  0
   21.9600   69.1020    4.5500 H   0  0  0  0  0  0  0  0  0  0  0  0
  1  2  1  0  0  0  0
  1 21  1  0  0  0  0
  1 22  1  0  0  0  0
  1 23  1  0  0  0  0
  2  3  1  0  0  0  0
  2 24  1  0  0  0  0
  2 25  1  0  0  0  0
  3  4  1  0  0  0  0
  4  5  1  0  0  0  0
  4 10  2  0  0  0  0
  5  6  2  0  0  0  0
  6  7  1  0  0  0  0
  6 11  1  0  0  0  0
  7  8  2  0  0  0  0
  7 26  1  0  0  0  0
  8  9  1  0  0  0  0
  8 10  1  0  0  0  0
  9 27  1  0  0  0  0
  9 28  1  0  0  0  0
 10 19  1  0  0  0  0
 11 12  1  0  0  0  0
 11 15  1  0  0  0  0
 12 13  2  0  0  0  0
 12 14  1  0  0  0  0
 14 16  1  0  0  0  0
 14 29  1  0  0  0  0
 14 30  1  0  0  0  0
 15 31  1  0  0  0  0
 15 32  1  0  0  0  0
 15 33  1  0  0  0  0
 16 17  1  0  0  0  0
 16 34  1  0  0  0  0
 16 35  1  0  0  0  0
 17 18  1  0  0  0  0
 17 36  1  0  0  0  0
 17 37  1  0  0  0  0
 18 38  1  0  0  0  0
 18 39  1  0  0  0  0
 18 40  1  0  0  0  0
 19 20  3  0  0  0  0
M  END
$$$$
jnk1_abbott_59_35
  MOE2024           3D
jnk1_abbott_59_35
 51 52  0  0  0  0  0  0  0  0999 V2000
   19.7740   62.9660    8.3070 C   0  0  0  0  0  0  0  0  0  0  0  0
   20.7240   62.8150    9.4970 C   0  0  0  0  0  0  0  0  0  0  0  0
   20.1050   63.5420   10.5870 O   0  0  0  0  0  0  0  0  0  0  0  0
   20.2510   64.8970   10.8100 C   0  0  0  0  0  0  0  0  0  0  0  0
   21.0540   65.6010    9.9750 N   0  0  0  0  0  0  0  0  0  0  0  0
   21.2250   66.9080   10.1870 C   0  0  0  0  0  0  0  0  0  0  0  0
   20.5890   67.5990   11.2080 C   0  0  0  0  0  0  0  0  0  0  0  0
   19.7620   66.8860   12.0620 C   0  0  0  0  0  0  0  0  0  0  0  0
   19.1230   67.5710   13.1010 N   0  0  0  0  0  0  0  0  0  0  0  0
   19.5740   65.5060   11.8740 C   0  0  0  0  0  0  0  0  0  0  0  0
   18.5510   64.5970   12.9420 Cl  0  0  0  0  0  0  0  0  0  0  0  0
   22.0990   67.4510    9.2520 N   0  0  0  0  0  0  0  0  0  0  0  0
   22.6250   68.7040    9.1410 C   0  0  0  0  0  0  0  0  0  0  0  0
   22.3280   69.5850    9.9190 O   0  0  0  0  0  0  0  0  0  0  0  0
   23.5990   68.9280    8.0020 C   0  0  0  0  0  0  0  0  0  0  0  0
   22.8050   68.8360    6.7030 C   0  0  0  0  0  0  0  0  0  0  0  0
   22.5370   67.6040    6.0950 C   0  0  0  0  0  0  0  0  0  0  0  0
   22.9970   66.4530    6.7120 O   0  0  0  0  0  0  0  0  0  0  0  0
   22.5400   65.1100    6.4060 C   0  0  0  0  0  0  0  0  0  0  0  0
   21.8150   67.5300    4.9020 C   0  0  0  0  0  0  0  0  0  0  0  0
   21.3330   68.6930    4.2980 C   0  0  0  0  0  0  0  0  0  0  0  0
   20.4000   68.5960    2.7620 S   0  0  0  0  0  0  0  0  0  0  0  0
   19.1340   69.2240    2.9270 O   0  0  0  0  0  0  0  0  0  0  0  0
   20.3880   67.2420    2.3210 O   0  0  0  0  0  0  0  0  0  0  0  0
   21.3540   69.5390    1.5970 C   0  0  0  0  0  0  0  0  0  0  0  0
   21.5920   69.9200    4.9150 C   0  0  0  0  0  0  0  0  0  0  0  0
   22.3190   69.9960    6.1070 C   0  0  0  0  0  0  0  0  0  0  0  0
   21.1230   71.0660    4.3080 O   0  0  0  0  0  0  0  0  0  0  0  0
   20.9470   72.3430    4.9670 C   0  0  0  0  0  0  0  0  0  0  0  0
   20.1840   62.4380    7.4460 H   0  0  0  0  0  0  0  0  0  0  0  0
   19.6600   64.0220    8.0650 H   0  0  0  0  0  0  0  0  0  0  0  0
   18.8020   62.5440    8.5630 H   0  0  0  0  0  0  0  0  0  0  0  0
   21.6990   63.2420    9.2620 H   0  0  0  0  0  0  0  0  0  0  0  0
   20.8410   61.7640    9.7600 H   0  0  0  0  0  0  0  0  0  0  0  0
   20.7340   68.6620   11.3330 H   0  0  0  0  0  0  0  0  0  0  0  0
   18.5130   67.0740   13.7330 H   0  0  0  0  0  0  0  0  0  0  0  0
   19.2720   68.5640   13.2180 H   0  0  0  0  0  0  0  0  0  0  0  0
   22.3940   66.8080    8.5320 H   0  0  0  0  0  0  0  0  0  0  0  0
   24.3760   68.1640    8.0190 H   0  0  0  0  0  0  0  0  0  0  0  0
   24.0560   69.9140    8.0900 H   0  0  0  0  0  0  0  0  0  0  0  0
   23.0670   64.3950    7.0370 H   0  0  0  0  0  0  0  0  0  0  0  0
   22.7430   64.8880    5.3580 H   0  0  0  0  0  0  0  0  0  0  0  0
   21.4690   65.0400    6.5920 H   0  0  0  0  0  0  0  0  0  0  0  0
   21.6290   66.5700    4.4450 H   0  0  0  0  0  0  0  0  0  0  0  0
   21.3810   70.5820    1.9100 H   0  0  0  0  0  0  0  0  0  0  0  0
   20.8970   69.4670    0.6110 H   0  0  0  0  0  0  0  0  0  0  0  0
   22.3700   69.1450    1.5570 H   0  0  0  0  0  0  0  0  0  0  0  0
   22.5020   70.9560    6.5670 H   0  0  0  0  0  0  0  0  0  0  0  0
   20.5630   73.0710    4.2520 H   0  0  0  0  0  0  0  0  0  0  0  0
   21.9050   72.6860    5.3560 H   0  0  0  0  0  0  0  0  0  0  0  0
   20.2390   72.2330    5.7890 H   0  0  0  0  0  0  0  0  0  0  0  0
  1  2  1  0  0  0  0
  1 30  1  0  0  0  0
  1 31  1  0  0  0  0
  1 32  1  0  0  0  0
  2  3  1  0  0  0  0
  2 33  1  0  0  0  0
  2 34  1  0  0  0  0
  3  4  1  0  0  0  0
  4  5  1  0  0  0  0
  4 10  2  0  0  0  0
  5  6  2  0  0  0  0
  6  7  1  0  0  0  0
  6 12  1  0  0  0  0
  7  8  2  0  0  0  0
  7 35  1  0  0  0  0
  8  9  1  0  0  0  0
  8 10  1  0  0  0  0
  9 36  1  0  0  0  0
  9 37  1  0  0  0  0
 10 11  1  0  0  0  0
 12 13  1  0  0  0  0
 12 38  1  0  0  0  0
 13 14  2  0  0  0  0
 13 15  1  0  0  0  0
 15 16  1  0  0  0  0
 15 39  1  0  0  0  0
 15 40  1  0  0  0  0
 16 17  1  0  0  0  0
 16 27  2  0  0  0  0
 17 18  1  0  0  0  0
 17 20  2  0  0  0  0
 18 19  1  0  0  0  0
 19 41  1  0  0  0  0
 19 42  1  0  0  0  0
 19 43  1  0  0  0  0
 20 21  1  0  0  0  0
 20 44  1  0  0  0  0
 21 22  1  0  0  0  0
 21 26  2  0  0  0  0
 22 23  2  0  0  0  0
 22 24  2  0  0  0  0
 22 25  1  0  0  0  0
 25 45  1  0  0  0  0
 25 46  1  0  0  0  0
 25 47  1  0  0  0  0
 26 27  1  0  0  0  0
 26 28  1  0  0  0  0
 27 48  1  0  0  0  0
 28 29  1  0  0  0  0
 29 49  1  0  0  0  0
 29 50  1  0  0  0  0
 29 51  1  0  0  0  0
M  END
$$$$
