jnk1_abbott_01Z1.X_1181
     RDKit          3D

 47 50  0  0  1  0  0  0  0  0999 V2000
   20.0202   64.2909    9.8103 C   0  0  0  0  0  0  0  0  0  0  0  0
   20.0314   63.5012    8.6434 C   0  0  0  0  0  0  0  0  0  0  0  0
   20.2501   63.9476    7.6854 H   0  0  0  0  0  0  0  0  0  0  0  0
   19.7744   62.1253    8.7730 C   0  0  0  0  0  0  0  0  0  0  0  0
   19.7612   61.2682    7.6947 N   0  0  0  0  0  0  0  0  0  0  0  0
   19.5040   60.3062    7.9056 H   0  0  0  0  0  0  0  0  0  0  0  0
   19.5502   61.5743    9.9591 N   0  0  0  0  0  0  0  0  0  0  0  0
   19.5297   62.3023   11.0701 C   0  0  0  0  0  0  0  0  0  0  0  0
   19.3337   61.7920   12.0042 H   0  0  0  0  0  0  0  0  0  0  0  0
   19.7660   63.6805   11.0533 C   0  0  0  0  0  0  0  0  0  0  0  0
   19.7474   64.2463   11.9733 H   0  0  0  0  0  0  0  0  0  0  0  0
   20.3422   62.2952    3.6510 C   0  0  0  0  0  0  0  0  0  0  0  0
   20.4985   62.5603    2.6157 H   0  0  0  0  0  0  0  0  0  0  0  0
   19.0491   62.3101    4.1876 C   0  0  0  0  0  0  0  0  0  0  0  0
   18.2082   62.5843    3.5674 H   0  0  0  0  0  0  0  0  0  0  0  0
   18.8469   61.9569    5.5249 C   0  0  0  0  0  0  0  0  0  0  0  0
   17.8444   61.9631    5.9283 H   0  0  0  0  0  0  0  0  0  0  0  0
   19.9429   61.6152    6.3411 C   0  0  0  0  0  0  0  0  0  0  0  0
   21.2351   61.5952    5.7974 C   0  0  0  0  0  0  0  0  0  0  0  0
   22.0840   61.3246    6.4090 H   0  0  0  0  0  0  0  0  0  0  0  0
   21.4333   61.9334    4.4526 C   0  0  0  0  0  0  0  0  0  0  0  0
   22.4288   61.9193    4.0338 H   0  0  0  0  0  0  0  0  0  0  0  0
   20.7946   68.4757    9.5578 N   0  0  0  0  0  0  0  0  0  0  0  0
   19.8957   68.0322   10.4276 C   0  0  0  0  0  0  0  0  0  0  0  0
   19.3852   68.7614   11.0436 H   0  0  0  0  0  0  0  0  0  0  0  0
   19.6018   66.6710   10.5504 C   0  0  0  0  0  0  0  0  0  0  0  0
   18.8670   66.3374   11.2686 H   0  0  0  0  0  0  0  0  0  0  0  0
   20.2945   65.7672    9.7211 C   0  0  0  0  0  0  0  0  0  0  0  0
   21.2530   66.2611    8.8104 C   0  0  0  0  0  0  0  0  0  0  0  0
   21.8055   65.6024    8.1560 H   0  0  0  0  0  0  0  0  0  0  0  0
   21.4689   67.6417    8.7730 C   0  0  0  0  0  0  0  0  0  0  0  0
   22.4490   68.0607    7.8360 N   0  0  0  0  0  0  0  0  0  0  0  0
   23.1375   68.6446    8.2539 H   0  0  0  0  0  0  0  0  0  0  0  0
   22.6134   67.7660    6.5286 C   0  0  0  0  0  0  0  0  0  0  0  0
   23.5934   68.2109    5.9413 O   0  0  0  0  0  0  0  0  0  0  0  0
   22.3711   65.3439    4.0824 O   0  0  0  0  0  0  0  0  0  0  0  0
   22.2362   65.4900    5.4990 C   0  0  0  0  0  0  0  0  0  0  0  0
   23.2304   65.3305    5.9417 H   0  0  0  0  0  0  0  0  0  0  0  0
   21.5824   64.6832    5.8587 H   0  0  0  0  0  0  0  0  0  0  0  0
   21.6477   66.8890    5.7565 C   0  0  2  0  0  0  0  0  0  0  0  0
   20.6709   66.8421    6.2592 H   0  0  0  0  0  0  0  0  0  0  0  0
   21.4089   67.4116    4.3244 C   0  0  0  0  0  0  0  0  0  0  0  0
   21.4747   68.5003    4.2067 H   0  0  0  0  0  0  0  0  0  0  0  0
   20.3944   67.1320    3.9934 H   0  0  0  0  0  0  0  0  0  0  0  0
   22.4345   66.6429    3.5027 C   0  0  0  0  0  0  0  0  0  0  0  0
   22.2085   66.5761    2.4305 H   0  0  0  0  0  0  0  0  0  0  0  0
   23.4589   67.0222    3.6332 H   0  0  0  0  0  0  0  0  0  0  0  0
  1  2  2  0
  1 10  1  0
  1 28  1  0
  2  3  1  0
  2  4  1  0
  4  5  1  0
  4  7  2  0
  5  6  1  0
  5 18  1  0
  7  8  1  0
  8  9  1  0
  8 10  2  0
 10 11  1  0
 12 13  1  0
 12 14  2  0
 12 21  1  0
 14 15  1  0
 14 16  1  0
 16 17  1  0
 16 18  2  0
 18 19  1  0
 19 20  1  0
 19 21  2  0
 21 22  1  0
 23 24  2  0
 23 31  1  0
 24 25  1  0
 24 26  1  0
 26 27  1  0
 26 28  2  0
 28 29  1  0
 29 30  1  0
 29 31  2  0
 31 32  1  0
 32 33  1  0
 32 34  1  0
 34 35  2  0
 34 40  1  0
 36 37  1  0
 36 45  1  0
 37 38  1  0
 37 39  1  0
 37 40  1  0
 40 41  1  1
 40 42  1  0
 42 43  1  0
 42 44  1  0
 42 45  1  0
 45 46  1  0
 45 47  1  0
M  END
> <intraLJ>
36.622    

> <intraEL>
-17.394   

> <intraDihe>
27.328    

> <interLJ>
0.000     

> <interEJ>
0.000     

> <gridLJ>
-9.106    

> <gridEL>
0.000     

> <totalE>
37.449    

> <LGFE>
-9.106  

> <LE>
-0.337  

> <SMILES>
O=C(Nc1cc(-c2ccnc(Nc3ccccc3)c2)ccn1)[C@H]1CCOC1

> <atom.dprop.GFE>
-0.1466 -0.2308 0.0000 -0.2281 -0.5770 0.0000 -0.7100 0.0256 0.0000 -0.0352 0.0000 0.0189 0.0000 0.1099 0.0000 -0.0867 0.0000 -0.2243 -0.1316 0.0000 -0.0691 0.0000 -1.6690 -0.4792 0.0000 -0.3228 0.0000 -0.2988 -0.2146 0.0000 -0.3160 -1.0190 0.0000 0.0000 -0.2030 -0.8980 -0.3720 0.0000 0.0000 -0.3999 0.0000 -0.3823 0.0000 0.0000 -0.2468 0.0000 0.0000

> <atom.prop.CLASS>
BENC BENC NCLA GEHC FORN NCLA IMIN GEHC NCLA BENC NCLA BENC NCLA BENC NCLA BENC NCLA BENC BENC NCLA BENC NCLA IMIN GEHC NCLA BENC NCLA BENC BENC NCLA GEHC FORN NCLA NCLA FORO DMEO PRPC NCLA NCLA PRPC NCLA PRPC NCLA NCLA PRPC NCLA NCLA

> <cluster_id>
1

> <rmsd_to_cluster_rep>
0.00    

> <ligRMSD>
3.20    

> <ligCOMD>
0.95    

$$$$
jnk1_abbott_02Z2.X_457
     RDKit          3D

 48 51  0  0  0  0  0  0  0  0999 V2000
   19.6304   68.2153   11.5087 C   0  0  0  0  0  0  0  0  0  0  0  0
   19.8998   67.0305   10.8374 C   0  0  0  0  0  0  0  0  0  0  0  0
   21.0989   67.3308   10.0737 C   0  0  0  0  0  0  0  0  0  0  0  0
   21.7555   66.3437    9.3153 N   0  0  0  0  0  0  0  0  0  0  0  0
   21.2653   65.4508    9.2738 H   0  0  0  0  0  0  0  0  0  0  0  0
   22.2554   66.7392    7.9760 C   0  0  0  0  0  0  0  0  0  0  0  0
   22.2265   67.8362    7.8150 H   0  0  0  0  0  0  0  0  0  0  0  0
   23.3116   66.4079    7.8651 H   0  0  0  0  0  0  0  0  0  0  0  0
   21.5074   68.5789   10.2078 N   0  0  0  0  0  0  0  0  0  0  0  0
   20.6046   69.0952   11.0905 N   0  0  0  0  0  0  0  0  0  0  0  0
   20.6944   70.0569   11.3832 H   0  0  0  0  0  0  0  0  0  0  0  0
   19.0666   65.9486   11.0388 C   0  0  0  0  0  0  0  0  0  0  0  0
   19.3317   64.8046   10.2633 O   0  0  0  0  0  0  0  0  0  0  0  0
   18.0115   66.0183   11.8542 N   0  0  0  0  0  0  0  0  0  0  0  0
   17.7709   67.1474   12.5262 C   0  0  0  0  0  0  0  0  0  0  0  0
   16.9120   67.1589   13.1855 H   0  0  0  0  0  0  0  0  0  0  0  0
   18.5597   68.3008   12.3817 C   0  0  0  0  0  0  0  0  0  0  0  0
   18.3364   69.2072   12.9211 H   0  0  0  0  0  0  0  0  0  0  0  0
   17.8933   60.8812   10.7038 C   0  0  0  0  0  0  0  0  0  0  0  0
   17.5497   59.8612   10.7928 H   0  0  0  0  0  0  0  0  0  0  0  0
   18.2994   61.5863   11.8453 C   0  0  0  0  0  0  0  0  0  0  0  0
   18.2743   61.1056   12.8122 H   0  0  0  0  0  0  0  0  0  0  0  0
   18.7549   62.9079   11.7322 C   0  0  0  0  0  0  0  0  0  0  0  0
   19.0974   63.4283   12.6132 H   0  0  0  0  0  0  0  0  0  0  0  0
   18.7742   63.5387   10.4714 C   0  0  0  0  0  0  0  0  0  0  0  0
   18.3850   62.8150    9.3369 C   0  0  0  0  0  0  0  0  0  0  0  0
   18.4273   63.2842    8.3653 H   0  0  0  0  0  0  0  0  0  0  0  0
   17.9428   61.4943    9.4467 C   0  0  0  0  0  0  0  0  0  0  0  0
   17.6423   60.9495    8.5635 H   0  0  0  0  0  0  0  0  0  0  0  0
   19.8809   64.6562    5.0598 C   0  0  0  0  0  0  0  0  0  0  0  0
   19.2750   64.1279    4.3378 H   0  0  0  0  0  0  0  0  0  0  0  0
   20.0365   66.0421    4.9472 C   0  0  0  0  0  0  0  0  0  0  0  0
   19.5580   66.5729    4.1372 H   0  0  0  0  0  0  0  0  0  0  0  0
   20.8044   66.7437    5.8837 C   0  0  0  0  0  0  0  0  0  0  0  0
   20.9682   68.1266    5.7514 O   0  0  0  0  0  0  0  0  0  0  0  0
   19.7792   68.8416    6.0764 C   0  0  0  0  0  0  0  0  0  0  0  0
   19.9701   69.9290    5.9523 H   0  0  0  0  0  0  0  0  0  0  0  0
   19.4816   68.6583    7.1317 H   0  0  0  0  0  0  0  0  0  0  0  0
   18.9433   68.5528    5.4019 H   0  0  0  0  0  0  0  0  0  0  0  0
   21.4397   66.0407    6.9262 C   0  0  0  0  0  0  0  0  0  0  0  0
   21.2778   64.6452    7.0320 C   0  0  0  0  0  0  0  0  0  0  0  0
   21.7763   64.1448    7.8474 H   0  0  0  0  0  0  0  0  0  0  0  0
   20.4852   63.9440    6.1040 C   0  0  0  0  0  0  0  0  0  0  0  0
   20.2477   62.5545    6.1837 O   0  0  0  0  0  0  0  0  0  0  0  0
   20.9876   61.8086    7.1459 C   0  0  0  0  0  0  0  0  0  0  0  0
   20.6375   60.7542    7.1237 H   0  0  0  0  0  0  0  0  0  0  0  0
   20.8223   62.2086    8.1703 H   0  0  0  0  0  0  0  0  0  0  0  0
   22.0728   61.8206    6.9049 H   0  0  0  0  0  0  0  0  0  0  0  0
  1  2  2  0
  1 10  1  0
  1 17  1  0
  2  3  1  0
  2 12  1  0
  3  4  1  0
  3  9  2  0
  4  5  1  0
  4  6  1  0
  6  7  1  0
  6  8  1  0
  6 40  1  0
  9 10  1  0
 10 11  1  0
 12 13  1  0
 12 14  2  0
 13 25  1  0
 14 15  1  0
 15 16  1  0
 15 17  2  0
 17 18  1  0
 19 20  1  0
 19 21  2  0
 19 28  1  0
 21 22  1  0
 21 23  1  0
 23 24  1  0
 23 25  2  0
 25 26  1  0
 26 27  1  0
 26 28  2  0
 28 29  1  0
 30 31  1  0
 30 32  2  0
 30 43  1  0
 32 33  1  0
 32 34  1  0
 34 35  1  0
 34 40  2  0
 35 36  1  0
 36 37  1  0
 36 38  1  0
 36 39  1  0
 40 41  1  0
 41 42  1  0
 41 43  2  0
 43 44  1  0
 44 45  1  0
 45 46  1  0
 45 47  1  0
 45 48  1  0
M  END
> <intraLJ>
32.776    

> <intraEL>
-8.814    

> <intraDihe>
17.452    

> <interLJ>
0.000     

> <interEJ>
0.000     

> <gridLJ>
-6.689    

> <gridEL>
0.000     

> <totalE>
34.725    

> <LGFE>
-6.689  

> <LE>
-0.239  

> <SMILES>
COc1ccc(OC)c(CNc2n[nH]c3ccnc(Oc4ccccc4)c23)c1

> <atom.dprop.GFE>
-0.0819 -0.4555 -0.4316 0.2490 0.0000 -0.4342 0.0000 0.0000 -1.7950 -0.2940 0.0000 -0.1538 0.0290 -0.5260 0.1668 0.0000 0.1924 0.0000 -0.0286 0.0000 0.0636 0.0000 0.0815 0.0000 -0.0352 0.0433 0.0000 0.0399 0.0000 0.1750 0.0000 0.2134 0.0000 -0.0975 -1.4510 0.0423 0.0000 0.0000 0.0000 -0.1725 -0.1623 0.0000 -0.2448 -1.3680 -0.2527 0.0000 0.0000 0.0000

> <atom.prop.CLASS>
GEHC GEHC GEHC FORN NCLA PRPC NCLA NCLA IMIN IMIH NCLA GEHC DMEO IMIN GEHC NCLA BENC NCLA BENC NCLA BENC NCLA BENC NCLA BENC BENC NCLA BENC NCLA BENC NCLA BENC NCLA BENC DMEO PRPC NCLA NCLA NCLA BENC BENC NCLA BENC DMEO PRPC NCLA NCLA NCLA

> <cluster_id>
1

> <rmsd_to_cluster_rep>
0.00    

> <ligRMSD>
4.40    

> <ligCOMD>
1.13    

$$$$
jnk1_abbott_03Z3.X_231
     RDKit          3D

 57 61  0  0  0  0  0  0  0  0999 V2000
   21.4056   69.0965    8.7984 C   0  0  0  0  0  0  0  0  0  0  0  0
   21.8846   69.9047    8.2652 H   0  0  0  0  0  0  0  0  0  0  0  0
   21.3805   69.1518   10.1948 C   0  0  0  0  0  0  0  0  0  0  0  0
   21.8437   69.9809   10.7102 H   0  0  0  0  0  0  0  0  0  0  0  0
   20.7687   68.1335   10.9267 C   0  0  0  0  0  0  0  0  0  0  0  0
   20.7724   68.1958   12.0063 H   0  0  0  0  0  0  0  0  0  0  0  0
   20.1335   67.0575   10.2741 C   0  0  0  0  0  0  0  0  0  0  0  0
   20.1765   67.0053    8.8648 C   0  0  0  0  0  0  0  0  0  0  0  0
   19.6887   66.1913    8.3478 H   0  0  0  0  0  0  0  0  0  0  0  0
   20.8094   68.0167    8.1187 C   0  0  0  0  0  0  0  0  0  0  0  0
   20.8373   67.9123    6.6296 C   0  0  0  0  0  0  0  0  0  0  0  0
   20.7988   66.8204    6.0661 O   0  0  0  0  0  0  0  0  0  0  0  0
   20.9238   69.0576    5.9262 N   0  0  0  0  0  0  0  0  0  0  0  0
   20.9792   69.9382    6.3881 H   0  0  0  0  0  0  0  0  0  0  0  0
   22.2243   70.3842    2.1410 N   0  0  0  0  0  0  0  0  0  0  0  0
   22.7492   71.1194    2.5859 H   0  0  0  0  0  0  0  0  0  0  0  0
   22.3737   70.4821    1.1502 H   0  0  0  0  0  0  0  0  0  0  0  0
   22.7437   69.0517    2.6027 C   0  0  0  0  0  0  0  0  0  0  0  0
   23.8043   69.0448    2.3066 H   0  0  0  0  0  0  0  0  0  0  0  0
   22.1808   68.3104    2.0140 H   0  0  0  0  0  0  0  0  0  0  0  0
   22.5441   68.8949    4.1100 C   0  0  0  0  0  0  0  0  0  0  0  0
   23.1672   69.6399    4.6525 H   0  0  0  0  0  0  0  0  0  0  0  0
   22.8749   67.8811    4.4252 H   0  0  0  0  0  0  0  0  0  0  0  0
   21.0627   69.0966    4.4996 C   0  0  0  0  0  0  0  0  0  0  0  0
   20.4587   68.2850    4.0269 H   0  0  0  0  0  0  0  0  0  0  0  0
   20.5223   70.4365    3.9584 C   0  0  0  0  0  0  0  0  0  0  0  0
   21.0265   71.2747    4.4882 H   0  0  0  0  0  0  0  0  0  0  0  0
   19.4324   70.5067    4.1675 H   0  0  0  0  0  0  0  0  0  0  0  0
   20.7640   70.5553    2.4532 C   0  0  0  0  0  0  0  0  0  0  0  0
   20.5056   71.5485    2.0542 H   0  0  0  0  0  0  0  0  0  0  0  0
   20.2575   69.7694    1.8711 H   0  0  0  0  0  0  0  0  0  0  0  0
   18.7654   63.9929   11.7771 C   0  0  0  0  0  0  0  0  0  0  0  0
   19.6159   64.5759   10.8303 C   0  0  0  0  0  0  0  0  0  0  0  0
   19.5198   65.9853   11.0541 C   0  0  0  0  0  0  0  0  0  0  0  0
   18.6784   66.2525   12.0500 N   0  0  0  0  0  0  0  0  0  0  0  0
   18.2472   65.0418   12.4745 N   0  0  0  0  0  0  0  0  0  0  0  0
   17.5968   64.9812   13.2447 H   0  0  0  0  0  0  0  0  0  0  0  0
   20.3399   63.7627    9.9697 C   0  0  0  0  0  0  0  0  0  0  0  0
   21.0277   64.1831    9.2507 H   0  0  0  0  0  0  0  0  0  0  0  0
   20.1697   62.3802   10.0251 C   0  0  0  0  0  0  0  0  0  0  0  0
   20.7166   61.7604    9.3291 H   0  0  0  0  0  0  0  0  0  0  0  0
   19.3068   61.8001   10.9743 C   0  0  0  0  0  0  0  0  0  0  0  0
   19.0905   60.4078   11.0908 N   0  0  0  0  0  0  0  0  0  0  0  0
   19.4110   59.9767   11.9563 H   0  0  0  0  0  0  0  0  0  0  0  0
   18.6012   62.6240   11.8593 C   0  0  0  0  0  0  0  0  0  0  0  0
   17.9350   62.2042   12.5998 H   0  0  0  0  0  0  0  0  0  0  0  0
   15.9497   58.3676    9.1268 C   0  0  0  0  0  0  0  0  0  0  0  0
   15.1461   57.8409    8.6336 H   0  0  0  0  0  0  0  0  0  0  0  0
   15.8693   58.6400   10.4978 C   0  0  0  0  0  0  0  0  0  0  0  0
   15.0058   58.3193   11.0613 H   0  0  0  0  0  0  0  0  0  0  0  0
   16.9057   59.3275   11.1425 C   0  0  0  0  0  0  0  0  0  0  0  0
   16.7786   59.6266   12.8560 Cl  0  0  0  0  0  0  0  0  0  0  0  0
   18.0372   59.7447   10.4124 C   0  0  0  0  0  0  0  0  0  0  0  0
   18.1190   59.4401    9.0386 C   0  0  0  0  0  0  0  0  0  0  0  0
   18.9861   59.7329    8.4640 H   0  0  0  0  0  0  0  0  0  0  0  0
   17.0733   58.7708    8.3970 C   0  0  0  0  0  0  0  0  0  0  0  0
   17.1391   58.5543    7.3407 H   0  0  0  0  0  0  0  0  0  0  0  0
  1  2  1  0
  1  3  2  0
  1 10  1  0
  3  4  1  0
  3  5  1  0
  5  6  1  0
  5  7  2  0
  7  8  1  0
  7 34  1  0
  8  9  1  0
  8 10  2  0
 10 11  1  0
 11 12  2  0
 11 13  1  0
 13 14  1  0
 13 24  1  0
 15 16  1  0
 15 17  1  0
 15 18  1  0
 15 29  1  0
 18 19  1  0
 18 20  1  0
 18 21  1  0
 21 22  1  0
 21 23  1  0
 21 24  1  0
 24 25  1  0
 24 26  1  0
 26 27  1  0
 26 28  1  0
 26 29  1  0
 29 30  1  0
 29 31  1  0
 32 33  2  0
 32 36  1  0
 32 45  1  0
 33 34  1  0
 33 38  1  0
 34 35  2  0
 35 36  1  0
 36 37  1  0
 38 39  1  0
 38 40  2  0
 40 41  1  0
 40 42  1  0
 42 43  1  0
 42 45  2  0
 43 44  1  0
 43 53  1  0
 45 46  1  0
 47 48  1  0
 47 49  2  0
 47 56  1  0
 49 50  1  0
 49 51  1  0
 51 52  1  0
 51 53  2  0
 53 54  1  0
 54 55  1  0
 54 56  2  0
 56 57  1  0
M  CHG  1  15   1
M  END
> <intraLJ>
28.084    

> <intraEL>
2.195     

> <intraDihe>
14.989    

> <interLJ>
0.000     

> <interEJ>
0.000     

> <gridLJ>
-6.713    

> <gridEL>
0.000     

> <totalE>
38.555    

> <LGFE>
-6.713  

> <LE>
-0.210  

> <SMILES>
O=C(NC1CC[NH2+]CC1)c1cccc(-c2n[nH]c3cc(Nc4ccccc4Cl)ccc23)c1

> <atom.dprop.GFE>
-0.1281 0.0000 -0.2346 0.0000 -0.3392 0.0000 -0.2640 -0.3272 0.0000 -0.3201 0.0000 -0.5240 -0.7130 0.0000 -0.7260 0.0000 0.0000 -0.1019 0.0000 0.0000 -0.3213 0.0000 0.0000 -0.3443 0.0000 -0.3473 0.0000 0.0000 -0.2234 0.0000 0.0000 0.1722 0.0047 -0.1538 -0.5260 -0.2820 0.0000 -0.1466 0.0000 -0.1251 0.0000 0.0458 -1.0050 0.0000 0.0815 0.0000 0.3362 0.0000 0.2002 0.0000 0.0977 -0.6840 0.0144 -0.0468 0.0000 0.2183 0.0000

> <atom.prop.CLASS>
BENC NCLA BENC NCLA BENC NCLA BENC BENC NCLA BENC NCLA FORO FORN NCLA MAMN NCLA NCLA PRPC NCLA NCLA PRPC NCLA NCLA PRPC NCLA PRPC NCLA NCLA PRPC NCLA NCLA GEHC GEHC GEHC IMIN IMIH NCLA BENC NCLA BENC NCLA BENC FORN NCLA BENC NCLA BENC NCLA BENC NCLA BENC CLBX BENC BENC NCLA BENC NCLA

> <cluster_id>
1

> <rmsd_to_cluster_rep>
0.00    

> <ligRMSD>
2.05    

> <ligCOMD>
0.69    

$$$$
jnk1_abbott_04_6a_847
     RDKit          3D

 28 28  0  0  0  0  0  0  0  0999 V2000
   18.1458   61.9295    8.5114 C   0  0  0  0  0  0  0  0  0  0  0  0
   18.7708   63.3265    8.5539 C   0  0  0  0  0  0  0  0  0  0  0  0
   18.7707   63.7454    9.9134 O   0  0  0  0  0  0  0  0  0  0  0  0
   19.2883   65.0157   10.2073 C   0  0  0  0  0  0  0  0  0  0  0  0
   19.7669   65.7514    9.2124 N   0  0  0  0  0  0  0  0  0  0  0  0
   20.2866   66.9556    9.4399 C   0  0  0  0  0  0  0  0  0  0  0  0
   20.3153   67.5167   10.7186 C   0  0  0  0  0  0  0  0  0  0  0  0
   19.8208   66.7597   11.7874 C   0  0  0  0  0  0  0  0  0  0  0  0
   19.8826   67.3283   13.0586 N   0  0  0  0  0  0  0  0  0  0  0  0
   19.2944   65.4706   11.5412 C   0  0  0  0  0  0  0  0  0  0  0  0
   18.7850   64.6124   12.5822 C   0  0  0  0  0  0  0  0  0  0  0  0
   18.3703   63.9064   13.4312 N   0  0  0  0  0  0  0  0  0  0  0  0
   20.7702   67.5941    8.2682 N   0  0  0  0  0  0  0  0  0  0  0  0
   21.6240   68.6305    8.1613 C   0  0  0  0  0  0  0  0  0  0  0  0
   22.1360   69.2044    9.1186 O   0  0  0  0  0  0  0  0  0  0  0  0
   21.9395   69.0546    6.7674 C   0  0  0  0  0  0  0  0  0  0  0  0
   18.1194   61.5451    7.4699 H   0  0  0  0  0  0  0  0  0  0  0  0
   17.1064   61.9596    8.9036 H   0  0  0  0  0  0  0  0  0  0  0  0
   18.7352   61.2229    9.1345 H   0  0  0  0  0  0  0  0  0  0  0  0
   18.1653   64.0210    7.9289 H   0  0  0  0  0  0  0  0  0  0  0  0
   19.8121   63.2848    8.1635 H   0  0  0  0  0  0  0  0  0  0  0  0
   20.6985   68.5067   10.9011 H   0  0  0  0  0  0  0  0  0  0  0  0
   19.5424   66.7739   13.8182 H   0  0  0  0  0  0  0  0  0  0  0  0
   20.2859   68.2416   13.1194 H   0  0  0  0  0  0  0  0  0  0  0  0
   20.4236   67.1616    7.4419 H   0  0  0  0  0  0  0  0  0  0  0  0
   21.3932   68.4285    6.0290 H   0  0  0  0  0  0  0  0  0  0  0  0
   23.0302   68.9559    6.5768 H   0  0  0  0  0  0  0  0  0  0  0  0
   21.6473   70.1165    6.6163 H   0  0  0  0  0  0  0  0  0  0  0  0
  1  2  1  0
  1 17  1  0
  1 18  1  0
  1 19  1  0
  2  3  1  0
  2 20  1  0
  2 21  1  0
  3  4  1  0
  4  5  2  0
  4 10  1  0
  5  6  1  0
  6  7  2  0
  6 13  1  0
  7  8  1  0
  7 22  1  0
  8  9  1  0
  8 10  2  0
  9 23  1  0
  9 24  1  0
 10 11  1  0
 11 12  3  0
 13 14  1  0
 13 25  1  0
 14 15  2  0
 14 16  1  0
 16 26  1  0
 16 27  1  0
 16 28  1  0
M  END
> <intraLJ>
15.132    

> <intraEL>
-21.702   

> <intraDihe>
4.758     

> <interLJ>
0.000     

> <interEJ>
0.000     

> <gridLJ>
-5.563    

> <gridEL>
0.000     

> <totalE>
-7.375    

> <LGFE>
-5.563  

> <LE>
-0.348  

> <SMILES>
CCOc1nc(NC(C)=O)cc(N)c1C#N

> <atom.dprop.GFE>
-0.3090 -0.5175 -0.1310 0.0047 -0.4020 -0.4116 -0.3392 -0.2096 -1.0780 -0.1528 0.0000 0.0000 -0.7360 0.0000 -0.9210 -0.3596 0.0000 0.0000 0.0000 0.0000 0.0000 0.0000 0.0000 0.0000 0.0000 0.0000 0.0000 0.0000

> <atom.prop.CLASS>
PRPC PRPC DMEO GEHC IMIN GEHC BENC BENC FORN BENC NCLA NCLA FORN NCLA FORO PRPC NCLA NCLA NCLA NCLA NCLA NCLA NCLA NCLA NCLA NCLA NCLA NCLA

> <cluster_id>
1

> <rmsd_to_cluster_rep>
0.00    

> <ligRMSD>
1.27    

> <ligCOMD>
1.20    

$$$$
jnk1_abbott_05_6b_1100
     RDKit          3D

 37 37  0  0  0  0  0  0  0  0999 V2000
   20.2758   69.3119   13.0508 C   0  0  0  0  0  0  0  0  0  0  0  0
   20.1894   68.2085   11.9932 C   0  0  0  0  0  0  0  0  0  0  0  0
   20.8954   68.6693   10.8472 O   0  0  0  0  0  0  0  0  0  0  0  0
   20.9152   67.8399    9.7152 C   0  0  0  0  0  0  0  0  0  0  0  0
   20.2820   66.6759    9.7713 N   0  0  0  0  0  0  0  0  0  0  0  0
   20.2810   65.8425    8.7334 C   0  0  0  0  0  0  0  0  0  0  0  0
   20.9138   66.1650    7.5306 C   0  0  0  0  0  0  0  0  0  0  0  0
   21.5952   67.3861    7.4446 C   0  0  0  0  0  0  0  0  0  0  0  0
   22.2412   67.6811    6.2445 N   0  0  0  0  0  0  0  0  0  0  0  0
   21.6092   68.2539    8.5610 C   0  0  0  0  0  0  0  0  0  0  0  0
   22.3039   69.5174    8.5732 C   0  0  0  0  0  0  0  0  0  0  0  0
   22.8734   70.5501    8.5879 N   0  0  0  0  0  0  0  0  0  0  0  0
   19.5919   64.6292    8.9893 N   0  0  0  0  0  0  0  0  0  0  0  0
   19.6039   63.4793    8.2885 C   0  0  0  0  0  0  0  0  0  0  0  0
   20.2271   63.3010    7.2469 O   0  0  0  0  0  0  0  0  0  0  0  0
   18.7822   62.3825    8.8660 C   0  0  0  0  0  0  0  0  0  0  0  0
   19.5386   61.7539   10.0404 C   0  0  0  0  0  0  0  0  0  0  0  0
   18.7334   60.6083   10.6548 C   0  0  0  0  0  0  0  0  0  0  0  0
   19.4217   59.9806   11.8624 C   0  0  0  0  0  0  0  0  0  0  0  0
   19.7418   69.0089   13.9760 H   0  0  0  0  0  0  0  0  0  0  0  0
   19.8170   70.2493   12.6688 H   0  0  0  0  0  0  0  0  0  0  0  0
   21.3370   69.5202   13.3067 H   0  0  0  0  0  0  0  0  0  0  0  0
   19.1208   68.0172   11.7457 H   0  0  0  0  0  0  0  0  0  0  0  0
   20.6548   67.2760   12.3837 H   0  0  0  0  0  0  0  0  0  0  0  0
   20.9012   65.5063    6.6789 H   0  0  0  0  0  0  0  0  0  0  0  0
   22.7382   68.5478    6.2009 H   0  0  0  0  0  0  0  0  0  0  0  0
   22.1776   66.9920    5.5224 H   0  0  0  0  0  0  0  0  0  0  0  0
   19.0573   64.6800    9.8269 H   0  0  0  0  0  0  0  0  0  0  0  0
   18.5772   61.6109    8.0908 H   0  0  0  0  0  0  0  0  0  0  0  0
   17.8094   62.7910    9.2200 H   0  0  0  0  0  0  0  0  0  0  0  0
   19.7282   62.5188   10.8280 H   0  0  0  0  0  0  0  0  0  0  0  0
   20.5221   61.3524    9.7056 H   0  0  0  0  0  0  0  0  0  0  0  0
   18.5698   59.8260    9.8796 H   0  0  0  0  0  0  0  0  0  0  0  0
   17.7351   60.9938   10.9623 H   0  0  0  0  0  0  0  0  0  0  0  0
   20.4120   59.5686   11.5718 H   0  0  0  0  0  0  0  0  0  0  0  0
   18.8029   59.1562   12.2766 H   0  0  0  0  0  0  0  0  0  0  0  0
   19.5759   60.7415   12.6574 H   0  0  0  0  0  0  0  0  0  0  0  0
  1  2  1  0
  1 20  1  0
  1 21  1  0
  1 22  1  0
  2  3  1  0
  2 23  1  0
  2 24  1  0
  3  4  1  0
  4  5  2  0
  4 10  1  0
  5  6  1  0
  6  7  2  0
  6 13  1  0
  7  8  1  0
  7 25  1  0
  8  9  1  0
  8 10  2  0
  9 26  1  0
  9 27  1  0
 10 11  1  0
 11 12  3  0
 13 14  1  0
 13 28  1  0
 14 15  2  0
 14 16  1  0
 16 17  1  0
 16 29  1  0
 16 30  1  0
 17 18  1  0
 17 31  1  0
 17 32  1  0
 18 19  1  0
 18 33  1  0
 18 34  1  0
 19 35  1  0
 19 36  1  0
 19 37  1  0
M  END
> <intraLJ>
14.547    

> <intraEL>
-18.654   

> <intraDihe>
5.195     

> <interLJ>
0.000     

> <interEJ>
0.000     

> <gridLJ>
-7.319    

> <gridEL>
0.000     

> <totalE>
-6.231    

> <LGFE>
-7.319  

> <LE>
-0.385  

> <SMILES>
CCCCC(=O)Nc1cc(N)c(C#N)c(OCC)n1

> <atom.dprop.GFE>
0.1445 -0.6810 -1.7740 -0.4316 -0.4670 -0.0576 -0.2129 -0.2211 -1.3040 -0.3201 0.0000 0.0000 -0.0980 0.0000 -0.7130 -0.4948 -0.2767 -0.3173 -0.0942 0.0000 0.0000 0.0000 0.0000 0.0000 0.0000 0.0000 0.0000 0.0000 0.0000 0.0000 0.0000 0.0000 0.0000 0.0000 0.0000 0.0000 0.0000

> <atom.prop.CLASS>
PRPC PRPC DMEO GEHC IMIN GEHC BENC BENC FORN BENC NCLA NCLA FORN NCLA FORO PRPC PRPC PRPC PRPC NCLA NCLA NCLA NCLA NCLA NCLA NCLA NCLA NCLA NCLA NCLA NCLA NCLA NCLA NCLA NCLA NCLA NCLA

> <cluster_id>
1

> <rmsd_to_cluster_rep>
0.00    

> <ligRMSD>
7.06    

> <ligCOMD>
2.06    

$$$$
jnk1_abbott_06_6c_23
     RDKit          3D

 34 34  0  0  0  0  0  0  0  0999 V2000
   20.4131   62.8803    8.7591 C   0  0  0  0  0  0  0  0  0  0  0  0
   19.0313   63.5384    8.7892 C   0  0  0  0  0  0  0  0  0  0  0  0
   18.8709   64.1208   10.0773 O   0  0  0  0  0  0  0  0  0  0  0  0
   19.4415   65.3853   10.2961 C   0  0  0  0  0  0  0  0  0  0  0  0
   20.0842   65.9744    9.2953 N   0  0  0  0  0  0  0  0  0  0  0  0
   20.6499   67.1708    9.4431 C   0  0  0  0  0  0  0  0  0  0  0  0
   20.5887   67.8615   10.6569 C   0  0  0  0  0  0  0  0  0  0  0  0
   19.9216   67.2622   11.7348 C   0  0  0  0  0  0  0  0  0  0  0  0
   19.8821   67.9603   12.9419 N   0  0  0  0  0  0  0  0  0  0  0  0
   19.3334   65.9875   11.5651 C   0  0  0  0  0  0  0  0  0  0  0  0
   18.6559   65.2799   12.6237 C   0  0  0  0  0  0  0  0  0  0  0  0
   18.1033   64.6969   13.4874 N   0  0  0  0  0  0  0  0  0  0  0  0
   21.3308   67.6318    8.2809 N   0  0  0  0  0  0  0  0  0  0  0  0
   22.2355   68.6303    8.1657 C   0  0  0  0  0  0  0  0  0  0  0  0
   22.6101   69.3217    9.1097 O   0  0  0  0  0  0  0  0  0  0  0  0
   22.7638   68.8831    6.7774 C   0  0  0  0  0  0  0  0  0  0  0  0
   21.6101   69.2350    5.8172 C   0  0  0  0  0  0  0  0  0  0  0  0
   23.5275   67.6361    6.2928 C   0  0  0  0  0  0  0  0  0  0  0  0
   20.5990   62.4070    7.7720 H   0  0  0  0  0  0  0  0  0  0  0  0
   20.4852   62.0982    9.5455 H   0  0  0  0  0  0  0  0  0  0  0  0
   21.2059   63.6369    8.9438 H   0  0  0  0  0  0  0  0  0  0  0  0
   18.2505   62.7657    8.6076 H   0  0  0  0  0  0  0  0  0  0  0  0
   18.9710   64.3222    8.0014 H   0  0  0  0  0  0  0  0  0  0  0  0
   21.0620   68.8190   10.7955 H   0  0  0  0  0  0  0  0  0  0  0  0
   19.4195   67.5123   13.7070 H   0  0  0  0  0  0  0  0  0  0  0  0
   20.3375   68.8506   12.9580 H   0  0  0  0  0  0  0  0  0  0  0  0
   21.0456   67.1369    7.4661 H   0  0  0  0  0  0  0  0  0  0  0  0
   23.4688   69.7436    6.8115 H   0  0  0  0  0  0  0  0  0  0  0  0
   20.8932   68.3899    5.7352 H   0  0  0  0  0  0  0  0  0  0  0  0
   22.0153   69.4397    4.8030 H   0  0  0  0  0  0  0  0  0  0  0  0
   21.0626   70.1374    6.1622 H   0  0  0  0  0  0  0  0  0  0  0  0
   22.8477   66.7586    6.2342 H   0  0  0  0  0  0  0  0  0  0  0  0
   24.3705   67.3905    6.9730 H   0  0  0  0  0  0  0  0  0  0  0  0
   23.9411   67.8187    5.2779 H   0  0  0  0  0  0  0  0  0  0  0  0
  1  2  1  0
  1 19  1  0
  1 20  1  0
  1 21  1  0
  2  3  1  0
  2 22  1  0
  2 23  1  0
  3  4  1  0
  4  5  2  0
  4 10  1  0
  5  6  1  0
  6  7  2  0
  6 13  1  0
  7  8  1  0
  7 24  1  0
  8  9  1  0
  8 10  2  0
  9 25  1  0
  9 26  1  0
 10 11  1  0
 11 12  3  0
 13 14  1  0
 13 27  1  0
 14 15  2  0
 14 16  1  0
 16 17  1  0
 16 18  1  0
 16 28  1  0
 17 29  1  0
 17 30  1  0
 17 31  1  0
 18 32  1  0
 18 33  1  0
 18 34  1  0
M  END
> <intraLJ>
17.179    

> <intraEL>
-15.827   

> <intraDihe>
5.870     

> <interLJ>
0.000     

> <interEJ>
0.000     

> <gridLJ>
-6.179    

> <gridEL>
0.000     

> <totalE>
1.043     

> <LGFE>
-6.179  

> <LE>
-0.343  

> <SMILES>
CCOc1nc(NC(=O)C(C)C)cc(N)c1C#N

> <atom.dprop.GFE>
-0.5052 -0.5175 -0.1310 -0.1538 0.0920 -0.4116 -0.3392 -0.2096 -1.0780 -0.1528 0.0000 0.0000 -0.7360 0.0000 -0.9210 -0.3596 -0.3713 -0.3843 0.0000 0.0000 0.0000 0.0000 0.0000 0.0000 0.0000 0.0000 0.0000 0.0000 0.0000 0.0000 0.0000 0.0000 0.0000 0.0000

> <atom.prop.CLASS>
PRPC PRPC DMEO GEHC IMIN GEHC BENC BENC FORN BENC NCLA NCLA FORN NCLA FORO PRPC PRPC PRPC NCLA NCLA NCLA NCLA NCLA NCLA NCLA NCLA NCLA NCLA NCLA NCLA NCLA NCLA NCLA NCLA

> <cluster_id>
1

> <rmsd_to_cluster_rep>
0.00    

> <ligRMSD>
1.49    

> <ligCOMD>
1.02    

$$$$
jnk1_abbott_07_6d_394
     RDKit          3D

 37 37  0  0  0  0  0  0  0  0999 V2000
   18.8320   61.7320    8.5270 C   0  0  0  0  0  0  0  0  0  0  0  0
   19.3039   63.1877    8.5635 C   0  0  0  0  0  0  0  0  0  0  0  0
   19.2215   63.6225    9.9157 O   0  0  0  0  0  0  0  0  0  0  0  0
   19.5868   64.9486   10.1967 C   0  0  0  0  0  0  0  0  0  0  0  0
   19.9993   65.7192    9.1985 N   0  0  0  0  0  0  0  0  0  0  0  0
   20.3742   66.9786    9.4107 C   0  0  0  0  0  0  0  0  0  0  0  0
   20.3120   67.5600   10.6800 C   0  0  0  0  0  0  0  0  0  0  0  0
   19.8849   66.7691   11.7539 C   0  0  0  0  0  0  0  0  0  0  0  0
   19.8504   67.3583   13.0178 N   0  0  0  0  0  0  0  0  0  0  0  0
   19.5136   65.4250   11.5205 C   0  0  0  0  0  0  0  0  0  0  0  0
   19.0834   64.5369   12.5706 C   0  0  0  0  0  0  0  0  0  0  0  0
   18.7361   63.8155   13.4364 N   0  0  0  0  0  0  0  0  0  0  0  0
   20.7925   67.6578    8.2364 N   0  0  0  0  0  0  0  0  0  0  0  0
   21.5866   68.7429    8.1306 C   0  0  0  0  0  0  0  0  0  0  0  0
   22.1364   69.2928    9.0809 O   0  0  0  0  0  0  0  0  0  0  0  0
   21.7788   69.2732    6.7483 C   0  0  0  0  0  0  0  0  0  0  0  0
   22.4006   68.1834    5.8442 C   0  0  0  0  0  0  0  0  0  0  0  0
   23.7695   67.7035    6.3662 C   0  0  0  0  0  0  0  0  0  0  0  0
   22.5380   68.7082    4.4051 C   0  0  0  0  0  0  0  0  0  0  0  0
   18.8756   61.3330    7.4917 H   0  0  0  0  0  0  0  0  0  0  0  0
   17.7846   61.6568    8.8910 H   0  0  0  0  0  0  0  0  0  0  0  0
   19.4750   61.1005    9.1771 H   0  0  0  0  0  0  0  0  0  0  0  0
   18.6460   63.8054    7.9113 H   0  0  0  0  0  0  0  0  0  0  0  0
   20.3544   63.2516    8.2013 H   0  0  0  0  0  0  0  0  0  0  0  0
   20.5717   68.5915   10.8505 H   0  0  0  0  0  0  0  0  0  0  0  0
   19.5682   66.7748   13.7794 H   0  0  0  0  0  0  0  0  0  0  0  0
   20.1558   68.3089   13.0755 H   0  0  0  0  0  0  0  0  0  0  0  0
   20.4157   67.2449    7.4133 H   0  0  0  0  0  0  0  0  0  0  0  0
   22.4392   70.1674    6.7621 H   0  0  0  0  0  0  0  0  0  0  0  0
   20.7902   69.5767    6.3381 H   0  0  0  0  0  0  0  0  0  0  0  0
   21.7141   67.3040    5.8070 H   0  0  0  0  0  0  0  0  0  0  0  0
   24.4839   68.5534    6.3982 H   0  0  0  0  0  0  0  0  0  0  0  0
   24.1826   66.9220    5.6943 H   0  0  0  0  0  0  0  0  0  0  0  0
   23.6851   67.2715    7.3845 H   0  0  0  0  0  0  0  0  0  0  0  0
   23.2151   69.5883    4.3819 H   0  0  0  0  0  0  0  0  0  0  0  0
   21.5470   69.0130    4.0070 H   0  0  0  0  0  0  0  0  0  0  0  0
   22.9580   67.9206    3.7443 H   0  0  0  0  0  0  0  0  0  0  0  0
  1  2  1  0
  1 20  1  0
  1 21  1  0
  1 22  1  0
  2  3  1  0
  2 23  1  0
  2 24  1  0
  3  4  1  0
  4  5  2  0
  4 10  1  0
  5  6  1  0
  6  7  2  0
  6 13  1  0
  7  8  1  0
  7 25  1  0
  8  9  1  0
  8 10  2  0
  9 26  1  0
  9 27  1  0
 10 11  1  0
 11 12  3  0
 13 14  1  0
 13 28  1  0
 14 15  2  0
 14 16  1  0
 16 17  1  0
 16 29  1  0
 16 30  1  0
 17 18  1  0
 17 19  1  0
 17 31  1  0
 18 32  1  0
 18 33  1  0
 18 34  1  0
 19 35  1  0
 19 36  1  0
 19 37  1  0
M  END
> <intraLJ>
14.816    

> <intraEL>
-20.579   

> <intraDihe>
5.313     

> <interLJ>
0.000     

> <interEJ>
0.000     

> <gridLJ>
-6.475    

> <gridEL>
0.000     

> <totalE>
-6.925    

> <LGFE>
-6.475  

> <LE>
-0.341  

> <SMILES>
CCOc1nc(NC(=O)CC(C)C)cc(N)c1C#N

> <atom.dprop.GFE>
-0.4622 -0.4948 -0.1310 0.0047 0.0920 -0.4116 -0.3392 -0.2096 -1.0780 -0.1528 0.0000 0.0000 -0.7360 0.0000 -0.9210 -0.3596 -0.5701 -0.3843 -0.3213 0.0000 0.0000 0.0000 0.0000 0.0000 0.0000 0.0000 0.0000 0.0000 0.0000 0.0000 0.0000 0.0000 0.0000 0.0000 0.0000 0.0000 0.0000

> <atom.prop.CLASS>
PRPC PRPC DMEO GEHC IMIN GEHC BENC BENC FORN BENC NCLA NCLA FORN NCLA FORO PRPC PRPC PRPC PRPC NCLA NCLA NCLA NCLA NCLA NCLA NCLA NCLA NCLA NCLA NCLA NCLA NCLA NCLA NCLA NCLA NCLA NCLA

> <cluster_id>
1

> <rmsd_to_cluster_rep>
0.00    

> <ligRMSD>
1.44    

> <ligCOMD>
0.90    

$$$$
jnk1_abbott_08_6e_833
     RDKit          3D

 38 39  0  0  0  0  0  0  0  0999 V2000
   20.4590   61.3268    7.3936 C   0  0  0  0  0  0  0  0  0  0  0  0
   20.6483   62.7791    7.8391 C   0  0  0  0  0  0  0  0  0  0  0  0
   19.7829   62.9945    8.9481 O   0  0  0  0  0  0  0  0  0  0  0  0
   19.7125   64.2914    9.4799 C   0  0  0  0  0  0  0  0  0  0  0  0
   20.4602   65.2388    8.9315 N   0  0  0  0  0  0  0  0  0  0  0  0
   20.4526   66.4774    9.4166 C   0  0  0  0  0  0  0  0  0  0  0  0
   19.6400   66.8562   10.4841 C   0  0  0  0  0  0  0  0  0  0  0  0
   18.8324   65.8760   11.0755 C   0  0  0  0  0  0  0  0  0  0  0  0
   18.0330   66.2661   12.1481 N   0  0  0  0  0  0  0  0  0  0  0  0
   18.8595   64.5528   10.5717 C   0  0  0  0  0  0  0  0  0  0  0  0
   18.0724   63.4768   11.1220 C   0  0  0  0  0  0  0  0  0  0  0  0
   17.4320   62.5933   11.5700 N   0  0  0  0  0  0  0  0  0  0  0  0
   21.2832   67.3725    8.7037 N   0  0  0  0  0  0  0  0  0  0  0  0
   21.7907   68.5613    9.0916 C   0  0  0  0  0  0  0  0  0  0  0  0
   21.6307   69.0280   10.2177 O   0  0  0  0  0  0  0  0  0  0  0  0
   22.6086   69.3186    8.0719 C   0  0  0  0  0  0  0  0  0  0  0  0
   22.6703   68.6753    6.6932 C   0  0  0  0  0  0  0  0  0  0  0  0
   23.6322   67.6857    6.4051 C   0  0  0  0  0  0  0  0  0  0  0  0
   23.6720   67.0769    5.1455 C   0  0  0  0  0  0  0  0  0  0  0  0
   22.7691   67.4693    4.1500 C   0  0  0  0  0  0  0  0  0  0  0  0
   21.8244   68.4685    4.4156 C   0  0  0  0  0  0  0  0  0  0  0  0
   21.7750   69.0685    5.6808 C   0  0  0  0  0  0  0  0  0  0  0  0
   21.1125   61.0959    6.5261 H   0  0  0  0  0  0  0  0  0  0  0  0
   19.4027   61.1484    7.0979 H   0  0  0  0  0  0  0  0  0  0  0  0
   20.7129   60.6317    8.2227 H   0  0  0  0  0  0  0  0  0  0  0  0
   20.3860   63.4612    6.9991 H   0  0  0  0  0  0  0  0  0  0  0  0
   21.7078   62.9450    8.1373 H   0  0  0  0  0  0  0  0  0  0  0  0
   19.6153   67.8750   10.8378 H   0  0  0  0  0  0  0  0  0  0  0  0
   17.4690   65.5574   12.5719 H   0  0  0  0  0  0  0  0  0  0  0  0
   18.1009   67.2235   12.4294 H   0  0  0  0  0  0  0  0  0  0  0  0
   21.5153   67.0228    7.8010 H   0  0  0  0  0  0  0  0  0  0  0  0
   23.6516   69.4165    8.4451 H   0  0  0  0  0  0  0  0  0  0  0  0
   22.1857   70.3435    7.9714 H   0  0  0  0  0  0  0  0  0  0  0  0
   24.3308   67.3784    7.1695 H   0  0  0  0  0  0  0  0  0  0  0  0
   24.4033   66.3091    4.9395 H   0  0  0  0  0  0  0  0  0  0  0  0
   22.8034   67.0035    3.1760 H   0  0  0  0  0  0  0  0  0  0  0  0
   21.1309   68.7736    3.6458 H   0  0  0  0  0  0  0  0  0  0  0  0
   21.0389   69.8333    5.8796 H   0  0  0  0  0  0  0  0  0  0  0  0
  1  2  1  0
  1 23  1  0
  1 24  1  0
  1 25  1  0
  2  3  1  0
  2 26  1  0
  2 27  1  0
  3  4  1  0
  4  5  2  0
  4 10  1  0
  5  6  1  0
  6  7  2  0
  6 13  1  0
  7  8  1  0
  7 28  1  0
  8  9  1  0
  8 10  2  0
  9 29  1  0
  9 30  1  0
 10 11  1  0
 11 12  3  0
 13 14  1  0
 13 31  1  0
 14 15  2  0
 14 16  1  0
 16 17  1  0
 16 32  1  0
 16 33  1  0
 17 18  2  0
 17 22  1  0
 18 19  1  0
 18 34  1  0
 19 20  2  0
 19 35  1  0
 20 21  1  0
 20 36  1  0
 21 22  2  0
 21 37  1  0
 22 38  1  0
M  END
> <intraLJ>
25.340    

> <intraEL>
-20.157   

> <intraDihe>
6.205     

> <interLJ>
0.000     

> <interEJ>
0.000     

> <gridLJ>
-6.677    

> <gridEL>
0.000     

> <totalE>
4.710     

> <LGFE>
-6.677  

> <LE>
-0.304  

> <SMILES>
CCOc1nc(NC(=O)Cc2ccccc2)cc(N)c1C#N

> <atom.dprop.GFE>
-0.5048 -0.5395 -1.2840 -0.0889 -0.3510 -0.4116 -0.3228 -0.2896 0.3800 -0.1354 0.0000 0.0000 -0.7360 0.0000 -1.3340 -0.2687 -0.0885 -0.1134 -0.0924 -0.2017 -0.1421 -0.1530 0.0000 0.0000 0.0000 0.0000 0.0000 0.0000 0.0000 0.0000 0.0000 0.0000 0.0000 0.0000 0.0000 0.0000 0.0000 0.0000

> <atom.prop.CLASS>
PRPC PRPC DMEO GEHC IMIN GEHC BENC BENC FORN BENC NCLA NCLA FORN NCLA FORO PRPC BENC BENC BENC BENC BENC BENC NCLA NCLA NCLA NCLA NCLA NCLA NCLA NCLA NCLA NCLA NCLA NCLA NCLA NCLA NCLA NCLA

> <cluster_id>
1

> <rmsd_to_cluster_rep>
0.00    

> <ligRMSD>
1.49    

> <ligCOMD>
0.95    

$$$$
jnk1_abbott_09_6f_879
     RDKit          3D

 38 39  0  0  0  0  0  0  0  0999 V2000
   18.7750   62.4939    8.7498 C   0  0  0  0  0  0  0  0  0  0  0  0
   19.2767   63.9388    8.6872 C   0  0  0  0  0  0  0  0  0  0  0  0
   19.0090   64.5307    9.9535 O   0  0  0  0  0  0  0  0  0  0  0  0
   19.5741   65.7871   10.2202 C   0  0  0  0  0  0  0  0  0  0  0  0
   20.2557   66.3868    9.2568 N   0  0  0  0  0  0  0  0  0  0  0  0
   20.8358   67.5655    9.4642 C   0  0  0  0  0  0  0  0  0  0  0  0
   20.7226   68.2521   10.6718 C   0  0  0  0  0  0  0  0  0  0  0  0
   20.0078   67.6378   11.7098 C   0  0  0  0  0  0  0  0  0  0  0  0
   19.9250   68.3156   12.9248 N   0  0  0  0  0  0  0  0  0  0  0  0
   19.4169   66.3693   11.4937 C   0  0  0  0  0  0  0  0  0  0  0  0
   18.6886   65.6473   12.5067 C   0  0  0  0  0  0  0  0  0  0  0  0
   18.0947   65.0497   13.3320 N   0  0  0  0  0  0  0  0  0  0  0  0
   21.5572   68.0196    8.3392 N   0  0  0  0  0  0  0  0  0  0  0  0
   21.9828   69.2545    8.0230 C   0  0  0  0  0  0  0  0  0  0  0  0
   21.7705   70.2635    8.6916 O   0  0  0  0  0  0  0  0  0  0  0  0
   22.7538   69.3255    6.7476 C   0  0  0  0  0  0  0  0  0  0  0  0
   21.8432   68.9437    5.6019 C   0  0  0  0  0  0  0  0  0  0  0  0
   21.7783   67.6296    5.0816 C   0  0  0  0  0  0  0  0  0  0  0  0
   22.7456   66.3406    5.7369 Cl  0  0  0  0  0  0  0  0  0  0  0  0
   20.9104   67.3322    4.0254 C   0  0  0  0  0  0  0  0  0  0  0  0
   20.0982   68.3311    3.4788 C   0  0  0  0  0  0  0  0  0  0  0  0
   20.1476   69.6315    3.9935 C   0  0  0  0  0  0  0  0  0  0  0  0
   21.0140   69.9345    5.0486 C   0  0  0  0  0  0  0  0  0  0  0  0
   18.9584   61.9745    7.7856 H   0  0  0  0  0  0  0  0  0  0  0  0
   17.6840   62.4732    8.9605 H   0  0  0  0  0  0  0  0  0  0  0  0
   19.2983   61.9373    9.5568 H   0  0  0  0  0  0  0  0  0  0  0  0
   18.7390   64.4818    7.8774 H   0  0  0  0  0  0  0  0  0  0  0  0
   20.3703   63.9484    8.4802 H   0  0  0  0  0  0  0  0  0  0  0  0
   21.1716   69.2207   10.8195 H   0  0  0  0  0  0  0  0  0  0  0  0
   19.4330   67.8566   13.6646 H   0  0  0  0  0  0  0  0  0  0  0  0
   20.3929   69.1981   12.9759 H   0  0  0  0  0  0  0  0  0  0  0  0
   21.7918   67.2652    7.7330 H   0  0  0  0  0  0  0  0  0  0  0  0
   23.6267   68.6375    6.7791 H   0  0  0  0  0  0  0  0  0  0  0  0
   23.1312   70.3596    6.5847 H   0  0  0  0  0  0  0  0  0  0  0  0
   20.8667   66.3270    3.6328 H   0  0  0  0  0  0  0  0  0  0  0  0
   19.4301   68.0971    2.6630 H   0  0  0  0  0  0  0  0  0  0  0  0
   19.5170   70.4023    3.5751 H   0  0  0  0  0  0  0  0  0  0  0  0
   21.0443   70.9400    5.4428 H   0  0  0  0  0  0  0  0  0  0  0  0
  1  2  1  0
  1 24  1  0
  1 25  1  0
  1 26  1  0
  2  3  1  0
  2 27  1  0
  2 28  1  0
  3  4  1  0
  4  5  2  0
  4 10  1  0
  5  6  1  0
  6  7  2  0
  6 13  1  0
  7  8  1  0
  7 29  1  0
  8  9  1  0
  8 10  2  0
  9 30  1  0
  9 31  1  0
 10 11  1  0
 11 12  3  0
 13 14  1  0
 13 32  1  0
 14 15  2  0
 14 16  1  0
 16 17  1  0
 16 33  1  0
 16 34  1  0
 17 18  2  0
 17 23  1  0
 18 19  1  0
 18 20  1  0
 20 21  2  0
 20 35  1  0
 21 22  1  0
 21 36  1  0
 22 23  2  0
 22 37  1  0
 23 38  1  0
M  END
> <intraLJ>
24.439    

> <intraEL>
-20.443   

> <intraDihe>
8.075     

> <interLJ>
0.000     

> <interEJ>
0.000     

> <gridLJ>
-7.822    

> <gridEL>
0.000     

> <totalE>
4.248     

> <LGFE>
-7.822  

> <LE>
-0.340  

> <SMILES>
CCOc1nc(NC(=O)Cc2ccccc2Cl)cc(N)c1C#N

> <atom.dprop.GFE>
-0.4948 -0.5175 -0.1610 -0.1538 -0.4670 -0.4316 -0.3392 -0.2797 -1.0780 -0.2406 0.0000 0.0000 -0.7360 0.0000 -0.2920 -0.3596 -0.1530 -0.2016 -1.6280 -0.1214 -0.0262 -0.0815 -0.0593 0.0000 0.0000 0.0000 0.0000 0.0000 0.0000 0.0000 0.0000 0.0000 0.0000 0.0000 0.0000 0.0000 0.0000 0.0000

> <atom.prop.CLASS>
PRPC PRPC DMEO GEHC IMIN GEHC BENC BENC FORN BENC NCLA NCLA FORN NCLA FORO PRPC BENC BENC CLBX BENC BENC BENC BENC NCLA NCLA NCLA NCLA NCLA NCLA NCLA NCLA NCLA NCLA NCLA NCLA NCLA NCLA NCLA

> <cluster_id>
1

> <rmsd_to_cluster_rep>
0.00    

> <ligRMSD>
1.37    

> <ligCOMD>
1.06    

$$$$
jnk1_abbott_10_6g_91
     RDKit          3D

 38 39  0  0  0  0  0  0  0  0999 V2000
   20.4848   61.4414    7.1525 C   0  0  0  0  0  0  0  0  0  0  0  0
   20.6036   62.9031    7.5913 C   0  0  0  0  0  0  0  0  0  0  0  0
   19.8369   63.0484    8.7814 O   0  0  0  0  0  0  0  0  0  0  0  0
   19.7596   64.3278    9.3557 C   0  0  0  0  0  0  0  0  0  0  0  0
   20.4135   65.3221    8.7725 N   0  0  0  0  0  0  0  0  0  0  0  0
   20.3995   66.5490    9.2882 C   0  0  0  0  0  0  0  0  0  0  0  0
   19.6661   66.8647   10.4314 C   0  0  0  0  0  0  0  0  0  0  0  0
   18.9654   65.8315   11.0708 C   0  0  0  0  0  0  0  0  0  0  0  0
   18.2578   66.1507   12.2288 N   0  0  0  0  0  0  0  0  0  0  0  0
   19.0080   64.5229   10.5314 C   0  0  0  0  0  0  0  0  0  0  0  0
   18.3426   63.3922   11.1294 C   0  0  0  0  0  0  0  0  0  0  0  0
   17.8040   62.4620   11.6152 N   0  0  0  0  0  0  0  0  0  0  0  0
   21.1920   67.4675    8.5574 N   0  0  0  0  0  0  0  0  0  0  0  0
   21.7863   68.6074    8.9662 C   0  0  0  0  0  0  0  0  0  0  0  0
   21.6677   69.0834   10.0936 O   0  0  0  0  0  0  0  0  0  0  0  0
   22.7059   69.2491    7.9664 C   0  0  0  0  0  0  0  0  0  0  0  0
   22.2469   69.0563    6.5357 C   0  0  0  0  0  0  0  0  0  0  0  0
   21.3035   69.9400    5.9854 C   0  0  0  0  0  0  0  0  0  0  0  0
   20.8658   69.7765    4.6672 C   0  0  0  0  0  0  0  0  0  0  0  0
   19.6649   70.8494    4.0179 Cl  0  0  0  0  0  0  0  0  0  0  0  0
   21.3761   68.7396    3.8782 C   0  0  0  0  0  0  0  0  0  0  0  0
   22.3275   67.8613    4.4107 C   0  0  0  0  0  0  0  0  0  0  0  0
   22.7634   68.0195    5.7334 C   0  0  0  0  0  0  0  0  0  0  0  0
   21.0677   61.2633    6.2243 H   0  0  0  0  0  0  0  0  0  0  0  0
   19.4218   61.1824    6.9575 H   0  0  0  0  0  0  0  0  0  0  0  0
   20.8697   60.7665    7.9471 H   0  0  0  0  0  0  0  0  0  0  0  0
   20.2090   63.5636    6.7864 H   0  0  0  0  0  0  0  0  0  0  0  0
   21.6709   63.1509    7.7874 H   0  0  0  0  0  0  0  0  0  0  0  0
   19.6327   67.8682   10.8238 H   0  0  0  0  0  0  0  0  0  0  0  0
   17.7916   65.3981   12.6937 H   0  0  0  0  0  0  0  0  0  0  0  0
   18.3180   67.0991   12.5407 H   0  0  0  0  0  0  0  0  0  0  0  0
   21.3740   67.1365    7.6369 H   0  0  0  0  0  0  0  0  0  0  0  0
   23.7235   68.8107    8.0729 H   0  0  0  0  0  0  0  0  0  0  0  0
   22.7782   70.3401    8.1719 H   0  0  0  0  0  0  0  0  0  0  0  0
   20.9024   70.7407    6.5886 H   0  0  0  0  0  0  0  0  0  0  0  0
   21.0330   68.6168    2.8618 H   0  0  0  0  0  0  0  0  0  0  0  0
   22.7229   67.0615    3.8021 H   0  0  0  0  0  0  0  0  0  0  0  0
   23.4954   67.3378    6.1402 H   0  0  0  0  0  0  0  0  0  0  0  0
  1  2  1  0
  1 24  1  0
  1 25  1  0
  1 26  1  0
  2  3  1  0
  2 27  1  0
  2 28  1  0
  3  4  1  0
  4  5  2  0
  4 10  1  0
  5  6  1  0
  6  7  2  0
  6 13  1  0
  7  8  1  0
  7 29  1  0
  8  9  1  0
  8 10  2  0
  9 30  1  0
  9 31  1  0
 10 11  1  0
 11 12  3  0
 13 14  1  0
 13 32  1  0
 14 15  2  0
 14 16  1  0
 16 17  1  0
 16 33  1  0
 16 34  1  0
 17 18  2  0
 17 23  1  0
 18 19  1  0
 18 35  1  0
 19 20  1  0
 19 21  2  0
 21 22  1  0
 21 36  1  0
 22 23  2  0
 22 37  1  0
 23 38  1  0
M  END
> <intraLJ>
24.293    

> <intraEL>
-20.820   

> <intraDihe>
7.237     

> <interLJ>
0.000     

> <interEJ>
0.000     

> <gridLJ>
-7.489    

> <gridEL>
0.000     

> <totalE>
3.221     

> <LGFE>
-7.489  

> <LE>
-0.326  

> <SMILES>
CCOc1nc(NC(=O)Cc2cccc(Cl)c2)cc(N)c1C#N

> <atom.dprop.GFE>
-0.5048 -0.5395 -1.2840 -0.1122 -0.3510 -0.4116 -0.3228 -0.2896 0.3800 -0.1354 0.0000 0.0000 -0.7360 0.0000 -1.3340 -0.2687 -0.0885 0.0867 -0.0593 -1.0500 -0.0648 -0.2017 -0.2016 0.0000 0.0000 0.0000 0.0000 0.0000 0.0000 0.0000 0.0000 0.0000 0.0000 0.0000 0.0000 0.0000 0.0000 0.0000

> <atom.prop.CLASS>
PRPC PRPC DMEO GEHC IMIN GEHC BENC BENC FORN BENC NCLA NCLA FORN NCLA FORO PRPC BENC BENC BENC CLBX BENC BENC BENC NCLA NCLA NCLA NCLA NCLA NCLA NCLA NCLA NCLA NCLA NCLA NCLA NCLA NCLA NCLA

> <cluster_id>
1

> <rmsd_to_cluster_rep>
0.00    

> <ligRMSD>
1.31    

> <ligCOMD>
0.93    

$$$$
jnk1_abbott_11_6h_1171
     RDKit          3D

 38 39  0  0  0  0  0  0  0  0999 V2000
   18.7783   62.0797    8.5118 C   0  0  0  0  0  0  0  0  0  0  0  0
   19.3006   63.5187    8.5161 C   0  0  0  0  0  0  0  0  0  0  0  0
   19.0439   64.0549    9.8089 O   0  0  0  0  0  0  0  0  0  0  0  0
   19.5604   65.3262   10.1038 C   0  0  0  0  0  0  0  0  0  0  0  0
   20.2053   65.9828    9.1492 N   0  0  0  0  0  0  0  0  0  0  0  0
   20.7397   67.1778    9.3865 C   0  0  0  0  0  0  0  0  0  0  0  0
   20.6139   67.8191   10.6187 C   0  0  0  0  0  0  0  0  0  0  0  0
   19.9281   67.1513   11.6416 C   0  0  0  0  0  0  0  0  0  0  0  0
   19.8203   67.7985   12.8713 N   0  0  0  0  0  0  0  0  0  0  0  0
   19.3827   65.8688   11.3929 C   0  0  0  0  0  0  0  0  0  0  0  0
   18.6718   65.1027   12.3867 C   0  0  0  0  0  0  0  0  0  0  0  0
   18.0913   64.4722   13.1971 N   0  0  0  0  0  0  0  0  0  0  0  0
   21.3761   67.7538    8.2611 N   0  0  0  0  0  0  0  0  0  0  0  0
   22.2861   68.7501    8.2167 C   0  0  0  0  0  0  0  0  0  0  0  0
   22.7593   69.2755    9.2224 O   0  0  0  0  0  0  0  0  0  0  0  0
   22.7526   69.1951    6.8515 C   0  0  0  0  0  0  0  0  0  0  0  0
   22.3288   68.2970    5.7002 C   0  0  0  0  0  0  0  0  0  0  0  0
   23.1007   67.1734    5.3396 C   0  0  0  0  0  0  0  0  0  0  0  0
   22.6993   66.3458    4.2851 C   0  0  0  0  0  0  0  0  0  0  0  0
   21.5378   66.6482    3.5669 C   0  0  0  0  0  0  0  0  0  0  0  0
   21.0346   65.6229    2.2604 Cl  0  0  0  0  0  0  0  0  0  0  0  0
   20.7755   67.7729    3.8978 C   0  0  0  0  0  0  0  0  0  0  0  0
   21.1692   68.5945    4.9603 C   0  0  0  0  0  0  0  0  0  0  0  0
   18.9514   61.6043    7.5233 H   0  0  0  0  0  0  0  0  0  0  0  0
   17.6878   62.0642    8.7254 H   0  0  0  0  0  0  0  0  0  0  0  0
   19.2962   61.4779    9.2893 H   0  0  0  0  0  0  0  0  0  0  0  0
   18.7692   64.1079    7.7351 H   0  0  0  0  0  0  0  0  0  0  0  0
   20.3937   63.5217    8.3063 H   0  0  0  0  0  0  0  0  0  0  0  0
   21.0153   68.8070   10.7820 H   0  0  0  0  0  0  0  0  0  0  0  0
   19.3376   67.3095   13.5978 H   0  0  0  0  0  0  0  0  0  0  0  0
   20.2507   68.6986   12.9406 H   0  0  0  0  0  0  0  0  0  0  0  0
   21.0926   67.3199    7.4113 H   0  0  0  0  0  0  0  0  0  0  0  0
   23.8637   69.2458    6.8483 H   0  0  0  0  0  0  0  0  0  0  0  0
   22.3669   70.2228    6.6650 H   0  0  0  0  0  0  0  0  0  0  0  0
   23.9983   66.9376    5.8920 H   0  0  0  0  0  0  0  0  0  0  0  0
   23.2857   65.4780    4.0221 H   0  0  0  0  0  0  0  0  0  0  0  0
   19.8820   68.0022    3.3366 H   0  0  0  0  0  0  0  0  0  0  0  0
   20.5729   69.4582    5.2144 H   0  0  0  0  0  0  0  0  0  0  0  0
  1  2  1  0
  1 24  1  0
  1 25  1  0
  1 26  1  0
  2  3  1  0
  2 27  1  0
  2 28  1  0
  3  4  1  0
  4  5  2  0
  4 10  1  0
  5  6  1  0
  6  7  2  0
  6 13  1  0
  7  8  1  0
  7 29  1  0
  8  9  1  0
  8 10  2  0
  9 30  1  0
  9 31  1  0
 10 11  1  0
 11 12  3  0
 13 14  1  0
 13 32  1  0
 14 15  2  0
 14 16  1  0
 16 17  1  0
 16 33  1  0
 16 34  1  0
 17 18  2  0
 17 23  1  0
 18 19  1  0
 18 35  1  0
 19 20  2  0
 19 36  1  0
 20 21  1  0
 20 22  1  0
 22 23  2  0
 22 37  1  0
 23 38  1  0
M  END
> <intraLJ>
25.005    

> <intraEL>
-20.523   

> <intraDihe>
6.333     

> <interLJ>
0.000     

> <interEJ>
0.000     

> <gridLJ>
-6.778    

> <gridEL>
0.000     

> <totalE>
4.038     

> <LGFE>
-6.778  

> <LE>
-0.295  

> <SMILES>
CCOc1nc(NC(=O)Cc2ccc(Cl)cc2)cc(N)c1C#N

> <atom.dprop.GFE>
-0.4622 -0.5175 -0.1310 -0.1538 0.0920 -0.4116 -0.3392 -0.2096 -1.0780 -0.1528 0.0000 0.0000 -0.7360 0.0000 -0.9210 -0.3596 -0.2016 -0.0924 -0.1999 -0.1298 -0.5630 -0.1214 -0.0893 0.0000 0.0000 0.0000 0.0000 0.0000 0.0000 0.0000 0.0000 0.0000 0.0000 0.0000 0.0000 0.0000 0.0000 0.0000

> <atom.prop.CLASS>
PRPC PRPC DMEO GEHC IMIN GEHC BENC BENC FORN BENC NCLA NCLA FORN NCLA FORO PRPC BENC BENC BENC BENC CLBX BENC BENC NCLA NCLA NCLA NCLA NCLA NCLA NCLA NCLA NCLA NCLA NCLA NCLA NCLA NCLA NCLA

> <cluster_id>
1

> <rmsd_to_cluster_rep>
0.00    

> <ligRMSD>
1.31    

> <ligCOMD>
0.76    

$$$$
jnk1_abbott_12_6i_787
     RDKit          3D

 41 42  0  0  0  0  0  0  0  0999 V2000
   20.6077   61.3883    7.4316 C   0  0  0  0  0  0  0  0  0  0  0  0
   20.6658   62.8634    7.8348 C   0  0  0  0  0  0  0  0  0  0  0  0
   19.7768   63.0543    8.9312 O   0  0  0  0  0  0  0  0  0  0  0  0
   19.7024   64.3533    9.4710 C   0  0  0  0  0  0  0  0  0  0  0  0
   20.4376   65.3100    8.9196 N   0  0  0  0  0  0  0  0  0  0  0  0
   20.4297   66.5554    9.3902 C   0  0  0  0  0  0  0  0  0  0  0  0
   19.6254   66.9265   10.4674 C   0  0  0  0  0  0  0  0  0  0  0  0
   18.8189   65.9408   11.0644 C   0  0  0  0  0  0  0  0  0  0  0  0
   17.9843   66.3171   12.1188 N   0  0  0  0  0  0  0  0  0  0  0  0
   18.8516   64.6168   10.5616 C   0  0  0  0  0  0  0  0  0  0  0  0
   18.0636   63.5356   11.1004 C   0  0  0  0  0  0  0  0  0  0  0  0
   17.4259   62.6437   11.5353 N   0  0  0  0  0  0  0  0  0  0  0  0
   21.2475   67.4566    8.6610 N   0  0  0  0  0  0  0  0  0  0  0  0
   21.7899   68.6357    9.0432 C   0  0  0  0  0  0  0  0  0  0  0  0
   21.6011   69.1420   10.1475 O   0  0  0  0  0  0  0  0  0  0  0  0
   22.6998   69.3246    8.0478 C   0  0  0  0  0  0  0  0  0  0  0  0
   22.6683   68.7362    6.6321 C   0  0  0  0  0  0  0  0  0  0  0  0
   21.7896   69.1662    5.5956 C   0  0  0  0  0  0  0  0  0  0  0  0
   20.7719   70.2732    5.7189 C   0  0  0  0  0  0  0  0  0  0  0  0
   21.8487   68.5433    4.3374 C   0  0  0  0  0  0  0  0  0  0  0  0
   22.7492   67.5043    4.0886 C   0  0  0  0  0  0  0  0  0  0  0  0
   23.6244   67.0878    5.0929 C   0  0  0  0  0  0  0  0  0  0  0  0
   23.5992   67.7143    6.3400 C   0  0  0  0  0  0  0  0  0  0  0  0
   21.2914   61.1900    6.5793 H   0  0  0  0  0  0  0  0  0  0  0  0
   19.5750   61.1116    7.1282 H   0  0  0  0  0  0  0  0  0  0  0  0
   20.9082   60.7421    8.2842 H   0  0  0  0  0  0  0  0  0  0  0  0
   20.3583   63.4925    6.9688 H   0  0  0  0  0  0  0  0  0  0  0  0
   21.7061   63.1258    8.1326 H   0  0  0  0  0  0  0  0  0  0  0  0
   19.5942   67.9464   10.8168 H   0  0  0  0  0  0  0  0  0  0  0  0
   17.6425   65.5447   12.6543 H   0  0  0  0  0  0  0  0  0  0  0  0
   18.2412   67.1870   12.5397 H   0  0  0  0  0  0  0  0  0  0  0  0
   21.4988   67.0866    7.7713 H   0  0  0  0  0  0  0  0  0  0  0  0
   23.7470   69.2362    8.4145 H   0  0  0  0  0  0  0  0  0  0  0  0
   22.4582   70.4052    8.0401 H   0  0  0  0  0  0  0  0  0  0  0  0
   20.7573   70.7222    6.7298 H   0  0  0  0  0  0  0  0  0  0  0  0
   19.7647   69.8570    5.5002 H   0  0  0  0  0  0  0  0  0  0  0  0
   21.0133   71.0640    4.9758 H   0  0  0  0  0  0  0  0  0  0  0  0
   21.1831   68.8672    3.5501 H   0  0  0  0  0  0  0  0  0  0  0  0
   22.7742   67.0302    3.1180 H   0  0  0  0  0  0  0  0  0  0  0  0
   24.3292   66.2914    4.9012 H   0  0  0  0  0  0  0  0  0  0  0  0
   24.2866   67.3855    7.1066 H   0  0  0  0  0  0  0  0  0  0  0  0
  1  2  1  0
  1 24  1  0
  1 25  1  0
  1 26  1  0
  2  3  1  0
  2 27  1  0
  2 28  1  0
  3  4  1  0
  4  5  2  0
  4 10  1  0
  5  6  1  0
  6  7  2  0
  6 13  1  0
  7  8  1  0
  7 29  1  0
  8  9  1  0
  8 10  2  0
  9 30  1  0
  9 31  1  0
 10 11  1  0
 11 12  3  0
 13 14  1  0
 13 32  1  0
 14 15  2  0
 14 16  1  0
 16 17  1  0
 16 33  1  0
 16 34  1  0
 17 18  2  0
 17 23  1  0
 18 19  1  0
 18 20  1  0
 19 35  1  0
 19 36  1  0
 19 37  1  0
 20 21  2  0
 20 38  1  0
 21 22  1  0
 21 39  1  0
 22 23  2  0
 22 40  1  0
 23 41  1  0
M  END
> <intraLJ>
24.822    

> <intraEL>
-20.018   

> <intraDihe>
7.385     

> <interLJ>
0.000     

> <interEJ>
0.000     

> <gridLJ>
-6.752    

> <gridEL>
0.000     

> <totalE>
5.437     

> <LGFE>
-6.752  

> <LE>
-0.294  

> <SMILES>
CCOc1nc(NC(=O)Cc2ccccc2C)cc(N)c1C#N

> <atom.dprop.GFE>
-0.5048 -0.5395 -1.2840 -0.1122 -0.3510 -0.4116 -0.3228 -0.2896 0.3800 -0.1354 0.0000 0.0000 -0.7360 0.0000 -1.3340 -0.2687 -0.0885 -0.1530 -0.0513 -0.1421 -0.2017 -0.0924 -0.1134 0.0000 0.0000 0.0000 0.0000 0.0000 0.0000 0.0000 0.0000 0.0000 0.0000 0.0000 0.0000 0.0000 0.0000 0.0000 0.0000 0.0000 0.0000

> <atom.prop.CLASS>
PRPC PRPC DMEO GEHC IMIN GEHC BENC BENC FORN BENC NCLA NCLA FORN NCLA FORO PRPC BENC BENC PRPC BENC BENC BENC BENC NCLA NCLA NCLA NCLA NCLA NCLA NCLA NCLA NCLA NCLA NCLA NCLA NCLA NCLA NCLA NCLA NCLA NCLA

> <cluster_id>
1

> <rmsd_to_cluster_rep>
0.00    

> <ligRMSD>
1.48    

> <ligCOMD>
0.84    

$$$$
jnk1_abbott_13_6j_1214
     RDKit          3D

 41 42  0  0  0  0  0  0  0  0999 V2000
   20.5789   61.2037    7.4471 C   0  0  0  0  0  0  0  0  0  0  0  0
   20.6261   62.6917    7.8035 C   0  0  0  0  0  0  0  0  0  0  0  0
   19.7923   62.8781    8.9416 O   0  0  0  0  0  0  0  0  0  0  0  0
   19.6750   64.1773    9.4594 C   0  0  0  0  0  0  0  0  0  0  0  0
   20.3405   65.1560    8.8619 N   0  0  0  0  0  0  0  0  0  0  0  0
   20.2861   66.3996    9.3307 C   0  0  0  0  0  0  0  0  0  0  0  0
   19.5049   66.7501   10.4308 C   0  0  0  0  0  0  0  0  0  0  0  0
   18.7836   65.7363   11.0740 C   0  0  0  0  0  0  0  0  0  0  0  0
   18.0161   66.0990   12.1790 N   0  0  0  0  0  0  0  0  0  0  0  0
   18.8614   64.4086   10.5877 C   0  0  0  0  0  0  0  0  0  0  0  0
   18.1621   63.3007   11.1905 C   0  0  0  0  0  0  0  0  0  0  0  0
   17.5928   62.3920   11.6819 N   0  0  0  0  0  0  0  0  0  0  0  0
   21.0305   67.3300    8.5697 N   0  0  0  0  0  0  0  0  0  0  0  0
   21.5809   68.4998    8.9561 C   0  0  0  0  0  0  0  0  0  0  0  0
   21.5432   68.9104   10.1144 O   0  0  0  0  0  0  0  0  0  0  0  0
   22.3050   69.3001    7.8980 C   0  0  0  0  0  0  0  0  0  0  0  0
   22.0939   68.8253    6.4663 C   0  0  0  0  0  0  0  0  0  0  0  0
   22.9756   67.8997    5.8717 C   0  0  0  0  0  0  0  0  0  0  0  0
   22.7537   67.4310    4.5687 C   0  0  0  0  0  0  0  0  0  0  0  0
   23.6538   66.3932    3.9648 C   0  0  0  0  0  0  0  0  0  0  0  0
   21.6710   67.9316    3.8303 C   0  0  0  0  0  0  0  0  0  0  0  0
   20.8105   68.8808    4.3951 C   0  0  0  0  0  0  0  0  0  0  0  0
   21.0181   69.3213    5.7079 C   0  0  0  0  0  0  0  0  0  0  0  0
   21.2147   60.9938    6.5613 H   0  0  0  0  0  0  0  0  0  0  0  0
   19.5367   60.8952    7.2153 H   0  0  0  0  0  0  0  0  0  0  0  0
   20.9447   60.5903    8.2986 H   0  0  0  0  0  0  0  0  0  0  0  0
   20.2533   63.2908    6.9422 H   0  0  0  0  0  0  0  0  0  0  0  0
   21.6731   62.9880    8.0382 H   0  0  0  0  0  0  0  0  0  0  0  0
   19.4402   67.7720   10.7706 H   0  0  0  0  0  0  0  0  0  0  0  0
   17.5135   65.3672   12.6393 H   0  0  0  0  0  0  0  0  0  0  0  0
   18.0425   67.0634   12.4428 H   0  0  0  0  0  0  0  0  0  0  0  0
   21.1634   67.0219    7.6325 H   0  0  0  0  0  0  0  0  0  0  0  0
   23.3972   69.2662    8.1048 H   0  0  0  0  0  0  0  0  0  0  0  0
   21.9780   70.3614    7.9766 H   0  0  0  0  0  0  0  0  0  0  0  0
   23.8112   67.5194    6.4406 H   0  0  0  0  0  0  0  0  0  0  0  0
   24.4494   66.1067    4.6865 H   0  0  0  0  0  0  0  0  0  0  0  0
   24.1192   66.8107    3.0463 H   0  0  0  0  0  0  0  0  0  0  0  0
   23.0485   65.4977    3.7071 H   0  0  0  0  0  0  0  0  0  0  0  0
   21.4996   67.5823    2.8227 H   0  0  0  0  0  0  0  0  0  0  0  0
   19.9799   69.2655    3.8215 H   0  0  0  0  0  0  0  0  0  0  0  0
   20.3415   70.0434    6.1406 H   0  0  0  0  0  0  0  0  0  0  0  0
  1  2  1  0
  1 24  1  0
  1 25  1  0
  1 26  1  0
  2  3  1  0
  2 27  1  0
  2 28  1  0
  3  4  1  0
  4  5  2  0
  4 10  1  0
  5  6  1  0
  6  7  2  0
  6 13  1  0
  7  8  1  0
  7 29  1  0
  8  9  1  0
  8 10  2  0
  9 30  1  0
  9 31  1  0
 10 11  1  0
 11 12  3  0
 13 14  1  0
 13 32  1  0
 14 15  2  0
 14 16  1  0
 16 17  1  0
 16 33  1  0
 16 34  1  0
 17 18  2  0
 17 23  1  0
 18 19  1  0
 18 35  1  0
 19 20  1  0
 19 21  2  0
 20 36  1  0
 20 37  1  0
 20 38  1  0
 21 22  1  0
 21 39  1  0
 22 23  2  0
 22 40  1  0
 23 41  1  0
M  END
> <intraLJ>
24.867    

> <intraEL>
-20.965   

> <intraDihe>
6.918     

> <interLJ>
0.000     

> <interEJ>
0.000     

> <gridLJ>
-6.646    

> <gridEL>
0.000     

> <totalE>
4.173     

> <LGFE>
-6.646  

> <LE>
-0.289  

> <SMILES>
CCOc1nc(NC(=O)Cc2cccc(C)c2)cc(N)c1C#N

> <atom.dprop.GFE>
-0.4239 -0.5395 -1.2840 -0.0889 -0.3510 -0.4116 -0.3228 -0.2896 0.3800 -0.1354 0.0000 0.0000 -0.7360 0.0000 -1.3340 -0.2687 -0.0885 -0.1072 -0.2017 -0.1851 -0.1214 -0.0893 -0.0474 0.0000 0.0000 0.0000 0.0000 0.0000 0.0000 0.0000 0.0000 0.0000 0.0000 0.0000 0.0000 0.0000 0.0000 0.0000 0.0000 0.0000 0.0000

> <atom.prop.CLASS>
PRPC PRPC DMEO GEHC IMIN GEHC BENC BENC FORN BENC NCLA NCLA FORN NCLA FORO PRPC BENC BENC BENC PRPC BENC BENC BENC NCLA NCLA NCLA NCLA NCLA NCLA NCLA NCLA NCLA NCLA NCLA NCLA NCLA NCLA NCLA NCLA NCLA NCLA

> <cluster_id>
1

> <rmsd_to_cluster_rep>
0.00    

> <ligRMSD>
1.41    

> <ligCOMD>
0.87    

$$$$
jnk1_abbott_14_6k_1057
     RDKit          3D

 41 42  0  0  0  0  0  0  0  0999 V2000
   20.4288   61.3263    7.2928 C   0  0  0  0  0  0  0  0  0  0  0  0
   20.6124   62.7795    7.7379 C   0  0  0  0  0  0  0  0  0  0  0  0
   19.7706   62.9825    8.8671 O   0  0  0  0  0  0  0  0  0  0  0  0
   19.7264   64.2693    9.4260 C   0  0  0  0  0  0  0  0  0  0  0  0
   20.4733   65.2194    8.8811 N   0  0  0  0  0  0  0  0  0  0  0  0
   20.4900   66.4479    9.3911 C   0  0  0  0  0  0  0  0  0  0  0  0
   19.7034   66.8143   10.4820 C   0  0  0  0  0  0  0  0  0  0  0  0
   18.8970   65.8315   11.0701 C   0  0  0  0  0  0  0  0  0  0  0  0
   18.1248   66.2090   12.1668 N   0  0  0  0  0  0  0  0  0  0  0  0
   18.8990   64.5183   10.5401 C   0  0  0  0  0  0  0  0  0  0  0  0
   18.1118   63.4404   11.0859 C   0  0  0  0  0  0  0  0  0  0  0  0
   17.4710   62.5551   11.5298 N   0  0  0  0  0  0  0  0  0  0  0  0
   21.3170   67.3485    8.6810 N   0  0  0  0  0  0  0  0  0  0  0  0
   21.8647   68.5112    9.0924 C   0  0  0  0  0  0  0  0  0  0  0  0
   21.7522   68.9416   10.2386 O   0  0  0  0  0  0  0  0  0  0  0  0
   22.6676   69.2848    8.0732 C   0  0  0  0  0  0  0  0  0  0  0  0
   22.7120   68.6594    6.6858 C   0  0  0  0  0  0  0  0  0  0  0  0
   21.7700   69.0263    5.7080 C   0  0  0  0  0  0  0  0  0  0  0  0
   21.7982   68.4375    4.4378 C   0  0  0  0  0  0  0  0  0  0  0  0
   22.7680   67.4724    4.1256 C   0  0  0  0  0  0  0  0  0  0  0  0
   22.7946   66.8265    2.7713 C   0  0  0  0  0  0  0  0  0  0  0  0
   23.7200   67.1124    5.0915 C   0  0  0  0  0  0  0  0  0  0  0  0
   23.7007   67.7106    6.3567 C   0  0  0  0  0  0  0  0  0  0  0  0
   21.0646   61.1049    6.4098 H   0  0  0  0  0  0  0  0  0  0  0  0
   19.3679   61.1371    7.0211 H   0  0  0  0  0  0  0  0  0  0  0  0
   20.7094   60.6319    8.1139 H   0  0  0  0  0  0  0  0  0  0  0  0
   20.3235   63.4609    6.9062 H   0  0  0  0  0  0  0  0  0  0  0  0
   21.6767   62.9561    8.0121 H   0  0  0  0  0  0  0  0  0  0  0  0
   19.6977   67.8261   10.8561 H   0  0  0  0  0  0  0  0  0  0  0  0
   17.5612   65.4984   12.5880 H   0  0  0  0  0  0  0  0  0  0  0  0
   18.2087   67.1601   12.4646 H   0  0  0  0  0  0  0  0  0  0  0  0
   21.5122   67.0250    7.7599 H   0  0  0  0  0  0  0  0  0  0  0  0
   23.7152   69.3799    8.4340 H   0  0  0  0  0  0  0  0  0  0  0  0
   22.2412   70.3099    7.9919 H   0  0  0  0  0  0  0  0  0  0  0  0
   21.0125   69.7610    5.9380 H   0  0  0  0  0  0  0  0  0  0  0  0
   21.0651   68.7243    3.6984 H   0  0  0  0  0  0  0  0  0  0  0  0
   21.9740   67.2278    2.1377 H   0  0  0  0  0  0  0  0  0  0  0  0
   22.6657   65.7295    2.8928 H   0  0  0  0  0  0  0  0  0  0  0  0
   23.7727   67.0402    2.2895 H   0  0  0  0  0  0  0  0  0  0  0  0
   24.4728   66.3743    4.8567 H   0  0  0  0  0  0  0  0  0  0  0  0
   24.4358   67.4245    7.0947 H   0  0  0  0  0  0  0  0  0  0  0  0
  1  2  1  0
  1 24  1  0
  1 25  1  0
  1 26  1  0
  2  3  1  0
  2 27  1  0
  2 28  1  0
  3  4  1  0
  4  5  2  0
  4 10  1  0
  5  6  1  0
  6  7  2  0
  6 13  1  0
  7  8  1  0
  7 29  1  0
  8  9  1  0
  8 10  2  0
  9 30  1  0
  9 31  1  0
 10 11  1  0
 11 12  3  0
 13 14  1  0
 13 32  1  0
 14 15  2  0
 14 16  1  0
 16 17  1  0
 16 33  1  0
 16 34  1  0
 17 18  2  0
 17 23  1  0
 18 19  1  0
 18 35  1  0
 19 20  2  0
 19 36  1  0
 20 21  1  0
 20 22  1  0
 21 37  1  0
 21 38  1  0
 21 39  1  0
 22 23  2  0
 22 40  1  0
 23 41  1  0
M  END
> <intraLJ>
25.500    

> <intraEL>
-20.892   

> <intraDihe>
6.322     

> <interLJ>
0.000     

> <interEJ>
0.000     

> <gridLJ>
-6.822    

> <gridEL>
0.000     

> <totalE>
4.108     

> <LGFE>
-6.822  

> <LE>
-0.297  

> <SMILES>
CCOc1nc(NC(=O)Cc2ccc(C)cc2)cc(N)c1C#N

> <atom.dprop.GFE>
-0.5048 -0.5395 -1.2840 -0.0889 -0.3510 -0.4116 -0.3228 -0.2896 0.3800 -0.1354 0.0000 0.0000 -0.7360 0.0000 -1.3340 -0.2687 -0.0885 -0.1530 -0.1421 -0.2017 -0.1445 -0.0924 -0.1134 0.0000 0.0000 0.0000 0.0000 0.0000 0.0000 0.0000 0.0000 0.0000 0.0000 0.0000 0.0000 0.0000 0.0000 0.0000 0.0000 0.0000 0.0000

> <atom.prop.CLASS>
PRPC PRPC DMEO GEHC IMIN GEHC BENC BENC FORN BENC NCLA NCLA FORN NCLA FORO PRPC BENC BENC BENC BENC PRPC BENC BENC NCLA NCLA NCLA NCLA NCLA NCLA NCLA NCLA NCLA NCLA NCLA NCLA NCLA NCLA NCLA NCLA NCLA NCLA

> <cluster_id>
1

> <rmsd_to_cluster_rep>
0.00    

> <ligRMSD>
1.52    

> <ligCOMD>
0.94    

$$$$
jnk1_abbott_15_6l_846
     RDKit          3D

 42 43  0  0  0  0  0  0  0  0999 V2000
   20.4406   61.3423    7.5241 C   0  0  0  0  0  0  0  0  0  0  0  0
   20.5507   62.8290    7.8715 C   0  0  0  0  0  0  0  0  0  0  0  0
   19.8209   63.0335    9.0759 O   0  0  0  0  0  0  0  0  0  0  0  0
   19.7677   64.3382    9.5928 C   0  0  0  0  0  0  0  0  0  0  0  0
   20.4034   65.3030    8.9425 N   0  0  0  0  0  0  0  0  0  0  0  0
   20.4036   66.5531    9.4011 C   0  0  0  0  0  0  0  0  0  0  0  0
   19.7037   66.9226   10.5484 C   0  0  0  0  0  0  0  0  0  0  0  0
   19.0245   65.9223   11.2570 C   0  0  0  0  0  0  0  0  0  0  0  0
   18.3498   66.2988   12.4173 N   0  0  0  0  0  0  0  0  0  0  0  0
   19.0541   64.5895   10.7816 C   0  0  0  0  0  0  0  0  0  0  0  0
   18.4086   63.4919   11.4576 C   0  0  0  0  0  0  0  0  0  0  0  0
   17.8847   62.5908   12.0098 N   0  0  0  0  0  0  0  0  0  0  0  0
   21.1637   67.4443    8.6076 N   0  0  0  0  0  0  0  0  0  0  0  0
   21.6265   68.6802    8.8821 C   0  0  0  0  0  0  0  0  0  0  0  0
   21.4318   69.2716    9.9417 O   0  0  0  0  0  0  0  0  0  0  0  0
   22.4883   69.2944    7.8152 C   0  0  0  0  0  0  0  0  0  0  0  0
   21.8413   69.2839    6.4382 C   0  0  0  0  0  0  0  0  0  0  0  0
   21.9884   68.1798    5.5684 C   0  0  0  0  0  0  0  0  0  0  0  0
   22.6965   67.0584    6.0466 O   0  0  0  0  0  0  0  0  0  0  0  0
   22.7635   65.9096    5.2115 C   0  0  0  0  0  0  0  0  0  0  0  0
   21.4201   68.2317    4.2765 C   0  0  0  0  0  0  0  0  0  0  0  0
   20.7094   69.3671    3.8665 C   0  0  0  0  0  0  0  0  0  0  0  0
   20.5546   70.4519    4.7349 C   0  0  0  0  0  0  0  0  0  0  0  0
   21.1221   70.4119    6.0119 C   0  0  0  0  0  0  0  0  0  0  0  0
   20.9952   61.1174    6.5887 H   0  0  0  0  0  0  0  0  0  0  0  0
   19.3759   61.0573    7.3811 H   0  0  0  0  0  0  0  0  0  0  0  0
   20.8624   60.7213    8.3436 H   0  0  0  0  0  0  0  0  0  0  0  0
   20.1195   63.4349    7.0427 H   0  0  0  0  0  0  0  0  0  0  0  0
   21.6195   63.1036    8.0167 H   0  0  0  0  0  0  0  0  0  0  0  0
   19.6789   67.9431   10.8943 H   0  0  0  0  0  0  0  0  0  0  0  0
   17.8887   65.5721   12.9265 H   0  0  0  0  0  0  0  0  0  0  0  0
   18.4088   67.2635   12.6743 H   0  0  0  0  0  0  0  0  0  0  0  0
   21.4222   67.0299    7.7378 H   0  0  0  0  0  0  0  0  0  0  0  0
   23.4488   68.7355    7.7527 H   0  0  0  0  0  0  0  0  0  0  0  0
   22.7278   70.3444    8.0960 H   0  0  0  0  0  0  0  0  0  0  0  0
   23.3156   65.1116    5.7530 H   0  0  0  0  0  0  0  0  0  0  0  0
   23.3126   66.1326    4.2711 H   0  0  0  0  0  0  0  0  0  0  0  0
   21.7435   65.5326    4.9788 H   0  0  0  0  0  0  0  0  0  0  0  0
   21.5167   67.4201    3.5729 H   0  0  0  0  0  0  0  0  0  0  0  0
   20.2757   69.4033    2.8775 H   0  0  0  0  0  0  0  0  0  0  0  0
   20.0029   71.3245    4.4164 H   0  0  0  0  0  0  0  0  0  0  0  0
   21.0070   71.2580    6.6738 H   0  0  0  0  0  0  0  0  0  0  0  0
  1  2  1  0
  1 25  1  0
  1 26  1  0
  1 27  1  0
  2  3  1  0
  2 28  1  0
  2 29  1  0
  3  4  1  0
  4  5  2  0
  4 10  1  0
  5  6  1  0
  6  7  2  0
  6 13  1  0
  7  8  1  0
  7 30  1  0
  8  9  1  0
  8 10  2  0
  9 31  1  0
  9 32  1  0
 10 11  1  0
 11 12  3  0
 13 14  1  0
 13 33  1  0
 14 15  2  0
 14 16  1  0
 16 17  1  0
 16 34  1  0
 16 35  1  0
 17 18  2  0
 17 24  1  0
 18 19  1  0
 18 21  1  0
 19 20  1  0
 20 36  1  0
 20 37  1  0
 20 38  1  0
 21 22  2  0
 21 39  1  0
 22 23  1  0
 22 40  1  0
 23 24  2  0
 23 41  1  0
 24 42  1  0
M  END
> <intraLJ>
25.865    

> <intraEL>
-19.672   

> <intraDihe>
7.332     

> <interLJ>
0.000     

> <interEJ>
0.000     

> <gridLJ>
-8.413    

> <gridEL>
0.000     

> <totalE>
5.112     

> <LGFE>
-8.413  

> <LE>
-0.351  

> <SMILES>
CCOc1nc(NC(=O)Cc2ccccc2OC)cc(N)c1C#N

> <atom.dprop.GFE>
-0.5048 -0.5395 -1.2840 -0.1122 -0.3510 -0.4116 -0.3228 -0.1528 0.3800 -0.1354 0.0000 0.0000 -0.7360 0.0000 -1.2440 -0.2687 -0.0885 -0.2016 -1.8700 -0.3720 -0.1331 -0.0815 -0.1039 0.1204 0.0000 0.0000 0.0000 0.0000 0.0000 0.0000 0.0000 0.0000 0.0000 0.0000 0.0000 0.0000 0.0000 0.0000 0.0000 0.0000 0.0000 0.0000

> <atom.prop.CLASS>
PRPC PRPC DMEO GEHC IMIN GEHC BENC BENC FORN BENC NCLA NCLA FORN NCLA FORO PRPC BENC BENC DMEO PRPC BENC BENC BENC BENC NCLA NCLA NCLA NCLA NCLA NCLA NCLA NCLA NCLA NCLA NCLA NCLA NCLA NCLA NCLA NCLA NCLA NCLA

> <cluster_id>
1

> <rmsd_to_cluster_rep>
0.00    

> <ligRMSD>
1.37    

> <ligCOMD>
0.96    

$$$$
jnk1_abbott_16_6m_948
     RDKit          3D

 42 43  0  0  0  0  0  0  0  0999 V2000
   20.6144   61.4078    7.2502 C   0  0  0  0  0  0  0  0  0  0  0  0
   20.6240   62.8625    7.7326 C   0  0  0  0  0  0  0  0  0  0  0  0
   19.7775   63.0577    8.8657 O   0  0  0  0  0  0  0  0  0  0  0  0
   19.7100   64.3534    9.4172 C   0  0  0  0  0  0  0  0  0  0  0  0
   20.4274   65.3159    8.8569 N   0  0  0  0  0  0  0  0  0  0  0  0
   20.4438   66.5464    9.3547 C   0  0  0  0  0  0  0  0  0  0  0  0
   19.6715   66.9116   10.4547 C   0  0  0  0  0  0  0  0  0  0  0  0
   18.8810   65.9231   11.0589 C   0  0  0  0  0  0  0  0  0  0  0  0
   18.1173   66.2988   12.1625 N   0  0  0  0  0  0  0  0  0  0  0  0
   18.8897   64.6048   10.5367 C   0  0  0  0  0  0  0  0  0  0  0  0
   18.1177   63.5229   11.0955 C   0  0  0  0  0  0  0  0  0  0  0  0
   17.4883   62.6347   11.5495 N   0  0  0  0  0  0  0  0  0  0  0  0
   21.2594   67.4397    8.6236 N   0  0  0  0  0  0  0  0  0  0  0  0
   21.8507   68.5754    9.0436 C   0  0  0  0  0  0  0  0  0  0  0  0
   21.7571   69.0006   10.1937 O   0  0  0  0  0  0  0  0  0  0  0  0
   22.6722   69.3259    8.0266 C   0  0  0  0  0  0  0  0  0  0  0  0
   22.2899   69.0605    6.5785 C   0  0  0  0  0  0  0  0  0  0  0  0
   21.2949   69.8307    5.9603 C   0  0  0  0  0  0  0  0  0  0  0  0
   20.9690   69.6542    4.6115 C   0  0  0  0  0  0  0  0  0  0  0  0
   19.9823   70.4997    4.0723 O   0  0  0  0  0  0  0  0  0  0  0  0
   19.6361   70.3262    2.7047 C   0  0  0  0  0  0  0  0  0  0  0  0
   21.6462   68.6642    3.8627 C   0  0  0  0  0  0  0  0  0  0  0  0
   22.6334   67.8792    4.4764 C   0  0  0  0  0  0  0  0  0  0  0  0
   22.9585   68.0808    5.8230 C   0  0  0  0  0  0  0  0  0  0  0  0
   21.2369   61.3010    6.3365 H   0  0  0  0  0  0  0  0  0  0  0  0
   19.5778   61.0879    7.0104 H   0  0  0  0  0  0  0  0  0  0  0  0
   21.0199   60.7302    8.0308 H   0  0  0  0  0  0  0  0  0  0  0  0
   20.2167   63.5002    6.9165 H   0  0  0  0  0  0  0  0  0  0  0  0
   21.6627   63.2134    7.9224 H   0  0  0  0  0  0  0  0  0  0  0  0
   19.6663   67.9260   10.8224 H   0  0  0  0  0  0  0  0  0  0  0  0
   17.5713   65.5831   12.5980 H   0  0  0  0  0  0  0  0  0  0  0  0
   18.1986   67.2509   12.4577 H   0  0  0  0  0  0  0  0  0  0  0  0
   21.4327   67.1167    7.6983 H   0  0  0  0  0  0  0  0  0  0  0  0
   23.7428   69.0506    8.1522 H   0  0  0  0  0  0  0  0  0  0  0  0
   22.5787   70.4170    8.2265 H   0  0  0  0  0  0  0  0  0  0  0  0
   20.7793   70.5903    6.5306 H   0  0  0  0  0  0  0  0  0  0  0  0
   18.8500   71.0665    2.4426 H   0  0  0  0  0  0  0  0  0  0  0  0
   19.2291   69.3067    2.5282 H   0  0  0  0  0  0  0  0  0  0  0  0
   20.5157   70.5043    2.0485 H   0  0  0  0  0  0  0  0  0  0  0  0
   21.4343   68.4846    2.8207 H   0  0  0  0  0  0  0  0  0  0  0  0
   23.1524   67.1231    3.9053 H   0  0  0  0  0  0  0  0  0  0  0  0
   23.7284   67.4803    6.2849 H   0  0  0  0  0  0  0  0  0  0  0  0
  1  2  1  0
  1 25  1  0
  1 26  1  0
  1 27  1  0
  2  3  1  0
  2 28  1  0
  2 29  1  0
  3  4  1  0
  4  5  2  0
  4 10  1  0
  5  6  1  0
  6  7  2  0
  6 13  1  0
  7  8  1  0
  7 30  1  0
  8  9  1  0
  8 10  2  0
  9 31  1  0
  9 32  1  0
 10 11  1  0
 11 12  3  0
 13 14  1  0
 13 33  1  0
 14 15  2  0
 14 16  1  0
 16 17  1  0
 16 34  1  0
 16 35  1  0
 17 18  2  0
 17 24  1  0
 18 19  1  0
 18 36  1  0
 19 20  1  0
 19 22  2  0
 20 21  1  0
 21 37  1  0
 21 38  1  0
 21 39  1  0
 22 23  1  0
 22 40  1  0
 23 24  2  0
 23 41  1  0
 24 42  1  0
M  END
> <intraLJ>
26.489    

> <intraEL>
-20.481   

> <intraDihe>
7.083     

> <interLJ>
0.000     

> <interEJ>
0.000     

> <gridLJ>
-7.920    

> <gridEL>
0.000     

> <totalE>
5.172     

> <LGFE>
-7.920  

> <LE>
-0.330  

> <SMILES>
CCOc1nc(NC(=O)Cc2cccc(OC)c2)cc(N)c1C#N

> <atom.dprop.GFE>
-0.5048 -0.5395 -1.2840 -0.1122 -0.3510 -0.4116 -0.3228 -0.2896 0.3800 -0.1354 0.0000 0.0000 -0.7360 0.0000 -1.3340 -0.2687 -0.0885 0.0867 -0.0593 -1.2400 -0.3350 -0.0648 -0.2017 -0.1072 0.0000 0.0000 0.0000 0.0000 0.0000 0.0000 0.0000 0.0000 0.0000 0.0000 0.0000 0.0000 0.0000 0.0000 0.0000 0.0000 0.0000 0.0000

> <atom.prop.CLASS>
PRPC PRPC DMEO GEHC IMIN GEHC BENC BENC FORN BENC NCLA NCLA FORN NCLA FORO PRPC BENC BENC BENC DMEO PRPC BENC BENC BENC NCLA NCLA NCLA NCLA NCLA NCLA NCLA NCLA NCLA NCLA NCLA NCLA NCLA NCLA NCLA NCLA NCLA NCLA

> <cluster_id>
1

> <rmsd_to_cluster_rep>
0.00    

> <ligRMSD>
1.52    

> <ligCOMD>
0.95    

$$$$
jnk1_abbott_17_6n_751
     RDKit          3D

 42 43  0  0  0  0  0  0  0  0999 V2000
   20.5639   61.3539    7.3148 C   0  0  0  0  0  0  0  0  0  0  0  0
   20.6635   62.8054    7.7907 C   0  0  0  0  0  0  0  0  0  0  0  0
   19.7724   62.9504    8.8910 O   0  0  0  0  0  0  0  0  0  0  0  0
   19.7048   64.2075    9.5133 C   0  0  0  0  0  0  0  0  0  0  0  0
   20.4558   65.1895    9.0339 N   0  0  0  0  0  0  0  0  0  0  0  0
   20.4527   66.3915    9.6039 C   0  0  0  0  0  0  0  0  0  0  0  0
   19.6375   66.6970   10.6932 C   0  0  0  0  0  0  0  0  0  0  0  0
   18.8252   65.6805   11.2133 C   0  0  0  0  0  0  0  0  0  0  0  0
   18.0224   65.9954   12.3083 N   0  0  0  0  0  0  0  0  0  0  0  0
   18.8504   64.3955   10.6188 C   0  0  0  0  0  0  0  0  0  0  0  0
   18.0594   63.2861   11.0913 C   0  0  0  0  0  0  0  0  0  0  0  0
   17.4156   62.3756   11.4759 N   0  0  0  0  0  0  0  0  0  0  0  0
   21.2890   67.3344    8.9610 N   0  0  0  0  0  0  0  0  0  0  0  0
   21.8450   68.4592    9.4596 C   0  0  0  0  0  0  0  0  0  0  0  0
   21.7346   68.8026   10.6350 O   0  0  0  0  0  0  0  0  0  0  0  0
   22.6566   69.3010    8.5046 C   0  0  0  0  0  0  0  0  0  0  0  0
   22.7040   68.7773    7.0772 C   0  0  0  0  0  0  0  0  0  0  0  0
   21.7774   69.2341    6.1263 C   0  0  0  0  0  0  0  0  0  0  0  0
   21.8096   68.7462    4.8180 C   0  0  0  0  0  0  0  0  0  0  0  0
   22.7603   67.7969    4.4275 C   0  0  0  0  0  0  0  0  0  0  0  0
   23.7063   67.3412    5.3740 C   0  0  0  0  0  0  0  0  0  0  0  0
   23.6797   67.8408    6.6833 C   0  0  0  0  0  0  0  0  0  0  0  0
   22.7132   67.3448    3.0961 O   0  0  0  0  0  0  0  0  0  0  0  0
   23.6699   66.3731    2.6938 C   0  0  0  0  0  0  0  0  0  0  0  0
   21.2416   61.1779    6.4529 H   0  0  0  0  0  0  0  0  0  0  0  0
   19.5237   61.1216    6.9998 H   0  0  0  0  0  0  0  0  0  0  0  0
   20.8455   60.6580    8.1342 H   0  0  0  0  0  0  0  0  0  0  0  0
   20.3743   63.4879    6.9599 H   0  0  0  0  0  0  0  0  0  0  0  0
   21.7078   63.0251    8.1073 H   0  0  0  0  0  0  0  0  0  0  0  0
   19.6142   67.6889   11.1166 H   0  0  0  0  0  0  0  0  0  0  0  0
   17.4587   65.2583   12.6811 H   0  0  0  0  0  0  0  0  0  0  0  0
   18.0933   66.9291   12.6595 H   0  0  0  0  0  0  0  0  0  0  0  0
   21.4820   67.0784    8.0186 H   0  0  0  0  0  0  0  0  0  0  0  0
   23.7029   69.3643    8.8761 H   0  0  0  0  0  0  0  0  0  0  0  0
   22.2361   70.3318    8.4965 H   0  0  0  0  0  0  0  0  0  0  0  0
   21.0287   69.9609    6.4063 H   0  0  0  0  0  0  0  0  0  0  0  0
   21.0864   69.1019    4.0977 H   0  0  0  0  0  0  0  0  0  0  0  0
   24.4641   66.6144    5.1280 H   0  0  0  0  0  0  0  0  0  0  0  0
   24.4027   67.4874    7.4041 H   0  0  0  0  0  0  0  0  0  0  0  0
   23.4953   66.1265    1.6246 H   0  0  0  0  0  0  0  0  0  0  0  0
   23.5601   65.4407    3.2894 H   0  0  0  0  0  0  0  0  0  0  0  0
   24.7030   66.7712    2.7961 H   0  0  0  0  0  0  0  0  0  0  0  0
  1  2  1  0
  1 25  1  0
  1 26  1  0
  1 27  1  0
  2  3  1  0
  2 28  1  0
  2 29  1  0
  3  4  1  0
  4  5  2  0
  4 10  1  0
  5  6  1  0
  6  7  2  0
  6 13  1  0
  7  8  1  0
  7 30  1  0
  8  9  1  0
  8 10  2  0
  9 31  1  0
  9 32  1  0
 10 11  1  0
 11 12  3  0
 13 14  1  0
 13 33  1  0
 14 15  2  0
 14 16  1  0
 16 17  1  0
 16 34  1  0
 16 35  1  0
 17 18  2  0
 17 22  1  0
 18 19  1  0
 18 36  1  0
 19 20  2  0
 19 37  1  0
 20 21  1  0
 20 23  1  0
 21 22  2  0
 21 38  1  0
 22 39  1  0
 23 24  1  0
 24 40  1  0
 24 41  1  0
 24 42  1  0
M  END
> <intraLJ>
26.665    

> <intraEL>
-19.950   

> <intraDihe>
6.527     

> <interLJ>
0.000     

> <interEJ>
0.000     

> <gridLJ>
-7.503    

> <gridEL>
0.000     

> <totalE>
5.740     

> <LGFE>
-7.503  

> <LE>
-0.313  

> <SMILES>
CCOc1nc(NC(=O)Cc2ccc(OC)cc2)cc(N)c1C#N

> <atom.dprop.GFE>
-0.5048 -0.5395 -1.2840 -0.0889 -0.3510 -0.4116 -0.3228 -0.1528 0.3800 -0.1354 0.0000 0.0000 -0.7360 0.0000 -1.3340 -0.0027 -0.0885 -0.0885 -0.1421 -0.2017 -0.1072 -0.1134 -1.1330 -0.1445 0.0000 0.0000 0.0000 0.0000 0.0000 0.0000 0.0000 0.0000 0.0000 0.0000 0.0000 0.0000 0.0000 0.0000 0.0000 0.0000 0.0000 0.0000

> <atom.prop.CLASS>
PRPC PRPC DMEO GEHC IMIN GEHC BENC BENC FORN BENC NCLA NCLA FORN NCLA FORO PRPC BENC BENC BENC BENC BENC BENC DMEO PRPC NCLA NCLA NCLA NCLA NCLA NCLA NCLA NCLA NCLA NCLA NCLA NCLA NCLA NCLA NCLA NCLA NCLA NCLA

> <cluster_id>
1

> <rmsd_to_cluster_rep>
0.00    

> <ligRMSD>
1.63    

> <ligCOMD>
0.75    

$$$$
jnk1_abbott_18_6o_1211
     RDKit          3D

 46 47  0  0  0  0  0  0  0  0999 V2000
   20.2635   61.3295    7.3548 C   0  0  0  0  0  0  0  0  0  0  0  0
   20.5494   62.7789    7.7552 C   0  0  0  0  0  0  0  0  0  0  0  0
   19.8991   63.0071    9.0004 O   0  0  0  0  0  0  0  0  0  0  0  0
   19.9445   64.3087    9.5283 C   0  0  0  0  0  0  0  0  0  0  0  0
   20.6095   65.2408    8.8594 N   0  0  0  0  0  0  0  0  0  0  0  0
   20.7033   66.4862    9.3216 C   0  0  0  0  0  0  0  0  0  0  0  0
   20.0738   66.8853   10.5003 C   0  0  0  0  0  0  0  0  0  0  0  0
   19.3665   65.9201   11.2319 C   0  0  0  0  0  0  0  0  0  0  0  0
   18.7602   66.3220   12.4217 N   0  0  0  0  0  0  0  0  0  0  0  0
   19.2971   64.5921   10.7470 C   0  0  0  0  0  0  0  0  0  0  0  0
   18.6176   63.5271   11.4419 C   0  0  0  0  0  0  0  0  0  0  0  0
   18.0667   62.6516   12.0084 N   0  0  0  0  0  0  0  0  0  0  0  0
   21.4787   67.3400    8.4993 N   0  0  0  0  0  0  0  0  0  0  0  0
   21.8357   68.6295    8.6724 C   0  0  0  0  0  0  0  0  0  0  0  0
   21.5172   69.3113    9.6441 O   0  0  0  0  0  0  0  0  0  0  0  0
   22.7350   69.1949    7.6105 C   0  0  0  0  0  0  0  0  0  0  0  0
   22.1111   69.1419    6.2263 C   0  0  0  0  0  0  0  0  0  0  0  0
   22.1641   67.9747    5.4368 C   0  0  0  0  0  0  0  0  0  0  0  0
   22.7645   66.8301    6.0006 O   0  0  0  0  0  0  0  0  0  0  0  0
   22.7135   65.6222    5.2522 C   0  0  0  0  0  0  0  0  0  0  0  0
   21.5994   67.9882    4.1427 C   0  0  0  0  0  0  0  0  0  0  0  0
   20.9620   69.1419    3.6596 C   0  0  0  0  0  0  0  0  0  0  0  0
   20.8845   70.2984    4.4661 C   0  0  0  0  0  0  0  0  0  0  0  0
   21.4799   70.2862    5.7281 C   0  0  0  0  0  0  0  0  0  0  0  0
   20.2233   71.4780    4.0760 O   0  0  0  0  0  0  0  0  0  0  0  0
   19.6014   71.4915    2.7974 C   0  0  0  0  0  0  0  0  0  0  0  0
   20.7519   61.0877    6.3874 H   0  0  0  0  0  0  0  0  0  0  0  0
   19.1691   61.1676    7.2486 H   0  0  0  0  0  0  0  0  0  0  0  0
   20.6473   60.6312    8.1294 H   0  0  0  0  0  0  0  0  0  0  0  0
   20.1521   63.4629    6.9715 H   0  0  0  0  0  0  0  0  0  0  0  0
   21.6469   62.9309    7.8607 H   0  0  0  0  0  0  0  0  0  0  0  0
   20.1222   67.9024   10.8534 H   0  0  0  0  0  0  0  0  0  0  0  0
   18.2925   65.6133   12.9500 H   0  0  0  0  0  0  0  0  0  0  0  0
   18.8984   67.2747   12.6930 H   0  0  0  0  0  0  0  0  0  0  0  0
   21.8360   66.8569    7.7032 H   0  0  0  0  0  0  0  0  0  0  0  0
   23.6882   68.6211    7.5888 H   0  0  0  0  0  0  0  0  0  0  0  0
   22.9817   70.2515    7.8588 H   0  0  0  0  0  0  0  0  0  0  0  0
   23.1798   64.8133    5.8547 H   0  0  0  0  0  0  0  0  0  0  0  0
   23.2833   65.7180    4.3027 H   0  0  0  0  0  0  0  0  0  0  0  0
   21.6602   65.3357    5.0388 H   0  0  0  0  0  0  0  0  0  0  0  0
   21.6338   67.1269    3.4943 H   0  0  0  0  0  0  0  0  0  0  0  0
   20.5377   69.1044    2.6687 H   0  0  0  0  0  0  0  0  0  0  0  0
   21.4297   71.1750    6.3418 H   0  0  0  0  0  0  0  0  0  0  0  0
   19.1029   72.4746    2.6569 H   0  0  0  0  0  0  0  0  0  0  0  0
   18.8293   70.6944    2.7273 H   0  0  0  0  0  0  0  0  0  0  0  0
   20.3539   71.3655    1.9890 H   0  0  0  0  0  0  0  0  0  0  0  0
  1  2  1  0
  1 27  1  0
  1 28  1  0
  1 29  1  0
  2  3  1  0
  2 30  1  0
  2 31  1  0
  3  4  1  0
  4  5  2  0
  4 10  1  0
  5  6  1  0
  6  7  2  0
  6 13  1  0
  7  8  1  0
  7 32  1  0
  8  9  1  0
  8 10  2  0
  9 33  1  0
  9 34  1  0
 10 11  1  0
 11 12  3  0
 13 14  1  0
 13 35  1  0
 14 15  2  0
 14 16  1  0
 16 17  1  0
 16 36  1  0
 16 37  1  0
 17 18  2  0
 17 24  1  0
 18 19  1  0
 18 21  1  0
 19 20  1  0
 20 38  1  0
 20 39  1  0
 20 40  1  0
 21 22  2  0
 21 41  1  0
 22 23  1  0
 22 42  1  0
 23 24  2  0
 23 25  1  0
 24 43  1  0
 25 26  1  0
 26 44  1  0
 26 45  1  0
 26 46  1  0
M  END
> <intraLJ>
28.361    

> <intraEL>
-20.071   

> <intraDihe>
7.182     

> <interLJ>
0.000     

> <interEJ>
0.000     

> <gridLJ>
-10.009   

> <gridEL>
0.000     

> <totalE>
5.463     

> <LGFE>
-10.009 

> <LE>
-0.385  

> <SMILES>
CCOc1nc(NC(=O)Cc2cc(OC)ccc2OC)cc(N)c1C#N

> <atom.dprop.GFE>
-0.5048 -0.5395 -1.2840 -0.0559 -0.3510 -0.4116 -0.2640 -0.1528 0.3800 -0.1354 0.0000 0.0000 -0.7360 0.0000 -1.2440 -0.2687 -0.0885 -0.2016 -1.8700 -0.3720 -0.1331 -0.0648 -0.0593 0.0867 -1.3490 -0.3899 0.0000 0.0000 0.0000 0.0000 0.0000 0.0000 0.0000 0.0000 0.0000 0.0000 0.0000 0.0000 0.0000 0.0000 0.0000 0.0000 0.0000 0.0000 0.0000 0.0000

> <atom.prop.CLASS>
PRPC PRPC DMEO GEHC IMIN GEHC BENC BENC FORN BENC NCLA NCLA FORN NCLA FORO PRPC BENC BENC DMEO PRPC BENC BENC BENC BENC DMEO PRPC NCLA NCLA NCLA NCLA NCLA NCLA NCLA NCLA NCLA NCLA NCLA NCLA NCLA NCLA NCLA NCLA NCLA NCLA NCLA NCLA

> <cluster_id>
1

> <rmsd_to_cluster_rep>
0.00    

> <ligRMSD>
1.28    

> <ligCOMD>
0.98    

$$$$
jnk1_abbott_19_6p_766
     RDKit          3D

 44 45  0  0  0  0  0  0  0  0999 V2000
   18.7714   62.4386    8.7340 C   0  0  0  0  0  0  0  0  0  0  0  0
   19.3716   63.8460    8.6865 C   0  0  0  0  0  0  0  0  0  0  0  0
   19.1292   64.4502    9.9522 O   0  0  0  0  0  0  0  0  0  0  0  0
   19.6430   65.7394   10.1681 C   0  0  0  0  0  0  0  0  0  0  0  0
   20.2380   66.3575    9.1588 N   0  0  0  0  0  0  0  0  0  0  0  0
   20.7711   67.5669    9.3128 C   0  0  0  0  0  0  0  0  0  0  0  0
   20.6984   68.2633   10.5183 C   0  0  0  0  0  0  0  0  0  0  0  0
   20.0701   67.6339   11.6042 C   0  0  0  0  0  0  0  0  0  0  0  0
   20.0205   68.3258   12.8135 N   0  0  0  0  0  0  0  0  0  0  0  0
   19.5243   66.3373   11.4383 C   0  0  0  0  0  0  0  0  0  0  0  0
   18.8739   65.6032   12.4954 C   0  0  0  0  0  0  0  0  0  0  0  0
   18.3429   64.9954   13.3556 N   0  0  0  0  0  0  0  0  0  0  0  0
   21.3932   68.0501    8.1367 N   0  0  0  0  0  0  0  0  0  0  0  0
   21.9952   69.2347    7.9130 C   0  0  0  0  0  0  0  0  0  0  0  0
   22.0020   70.1696    8.7121 O   0  0  0  0  0  0  0  0  0  0  0  0
   22.7632   69.3227    6.6237 C   0  0  0  0  0  0  0  0  0  0  0  0
   22.0431   68.6636    5.4548 C   0  0  0  0  0  0  0  0  0  0  0  0
   21.0185   69.3227    4.7271 C   0  0  0  0  0  0  0  0  0  0  0  0
   20.5124   70.7023    5.0666 C   0  0  0  0  0  0  0  0  0  0  0  0
   20.4097   68.6701    3.6437 C   0  0  0  0  0  0  0  0  0  0  0  0
   20.8034   67.3815    3.2713 C   0  0  0  0  0  0  0  0  0  0  0  0
   21.8151   66.7214    3.9797 C   0  0  0  0  0  0  0  0  0  0  0  0
   22.2382   65.3343    3.5897 C   0  0  0  0  0  0  0  0  0  0  0  0
   22.4298   67.3656    5.0630 C   0  0  0  0  0  0  0  0  0  0  0  0
   18.9318   61.9126    7.7693 H   0  0  0  0  0  0  0  0  0  0  0  0
   17.6788   62.4917    8.9304 H   0  0  0  0  0  0  0  0  0  0  0  0
   19.2446   61.8435    9.5445 H   0  0  0  0  0  0  0  0  0  0  0  0
   18.8830   64.4287    7.8732 H   0  0  0  0  0  0  0  0  0  0  0  0
   20.4658   63.7809    8.4931 H   0  0  0  0  0  0  0  0  0  0  0  0
   21.1075   69.2558   10.6211 H   0  0  0  0  0  0  0  0  0  0  0  0
   19.5926   67.8548   13.5850 H   0  0  0  0  0  0  0  0  0  0  0  0
   20.4553   69.2263   12.8304 H   0  0  0  0  0  0  0  0  0  0  0  0
   21.4695   67.3378    7.4462 H   0  0  0  0  0  0  0  0  0  0  0  0
   23.7456   68.8164    6.7647 H   0  0  0  0  0  0  0  0  0  0  0  0
   22.9808   70.3826    6.3731 H   0  0  0  0  0  0  0  0  0  0  0  0
   21.0464   71.1376    5.9351 H   0  0  0  0  0  0  0  0  0  0  0  0
   19.4304   70.6335    5.3110 H   0  0  0  0  0  0  0  0  0  0  0  0
   20.6529   71.3634    4.1845 H   0  0  0  0  0  0  0  0  0  0  0  0
   19.6257   69.1679    3.0914 H   0  0  0  0  0  0  0  0  0  0  0  0
   20.3223   66.8945    2.4356 H   0  0  0  0  0  0  0  0  0  0  0  0
   21.6496   64.9842    2.7139 H   0  0  0  0  0  0  0  0  0  0  0  0
   22.0659   64.6505    4.4484 H   0  0  0  0  0  0  0  0  0  0  0  0
   23.3181   65.3469    3.3283 H   0  0  0  0  0  0  0  0  0  0  0  0
   23.2109   66.8541    5.6061 H   0  0  0  0  0  0  0  0  0  0  0  0
  1  2  1  0
  1 25  1  0
  1 26  1  0
  1 27  1  0
  2  3  1  0
  2 28  1  0
  2 29  1  0
  3  4  1  0
  4  5  2  0
  4 10  1  0
  5  6  1  0
  6  7  2  0
  6 13  1  0
  7  8  1  0
  7 30  1  0
  8  9  1  0
  8 10  2  0
  9 31  1  0
  9 32  1  0
 10 11  1  0
 11 12  3  0
 13 14  1  0
 13 33  1  0
 14 15  2  0
 14 16  1  0
 16 17  1  0
 16 34  1  0
 16 35  1  0
 17 18  2  0
 17 24  1  0
 18 19  1  0
 18 20  1  0
 19 36  1  0
 19 37  1  0
 19 38  1  0
 20 21  2  0
 20 39  1  0
 21 22  1  0
 21 40  1  0
 22 23  1  0
 22 24  2  0
 23 41  1  0
 23 42  1  0
 23 43  1  0
 24 44  1  0
M  END
> <intraLJ>
26.582    

> <intraEL>
-21.044   

> <intraDihe>
6.515     

> <interLJ>
0.000     

> <interEJ>
0.000     

> <gridLJ>
-6.689    

> <gridEL>
0.000     

> <totalE>
5.365     

> <LGFE>
-6.689  

> <LE>
-0.279  

> <SMILES>
CCOc1nc(NC(=O)Cc2cc(C)ccc2C)cc(N)c1C#N

> <atom.dprop.GFE>
-0.4948 -0.5175 -0.1610 -0.1538 -0.4670 -0.4316 -0.3392 -0.2797 -1.0780 -0.2406 0.0000 0.0000 -0.7360 0.0000 -0.2920 -0.3596 -0.1530 -0.0893 -0.2527 -0.0262 -0.1214 -0.1560 -0.1372 -0.2017 0.0000 0.0000 0.0000 0.0000 0.0000 0.0000 0.0000 0.0000 0.0000 0.0000 0.0000 0.0000 0.0000 0.0000 0.0000 0.0000 0.0000 0.0000 0.0000 0.0000

> <atom.prop.CLASS>
PRPC PRPC DMEO GEHC IMIN GEHC BENC BENC FORN BENC NCLA NCLA FORN NCLA FORO PRPC BENC BENC PRPC BENC BENC BENC PRPC BENC NCLA NCLA NCLA NCLA NCLA NCLA NCLA NCLA NCLA NCLA NCLA NCLA NCLA NCLA NCLA NCLA NCLA NCLA NCLA NCLA

> <cluster_id>
1

> <rmsd_to_cluster_rep>
0.00    

> <ligRMSD>
1.39    

> <ligCOMD>
1.02    

$$$$
jnk1_abbott_20_6q_933
     RDKit          3D

 38 39  0  0  0  0  0  0  0  0999 V2000
   18.9752   62.5213    8.7569 C   0  0  0  0  0  0  0  0  0  0  0  0
   19.6545   63.8908    8.6812 C   0  0  0  0  0  0  0  0  0  0  0  0
   19.6361   64.4422    9.9935 O   0  0  0  0  0  0  0  0  0  0  0  0
   20.1767   65.7269   10.1672 C   0  0  0  0  0  0  0  0  0  0  0  0
   20.7023   66.3352    9.1153 N   0  0  0  0  0  0  0  0  0  0  0  0
   21.2542   67.5405    9.2254 C   0  0  0  0  0  0  0  0  0  0  0  0
   21.2709   68.2457   10.4273 C   0  0  0  0  0  0  0  0  0  0  0  0
   20.7222   67.6243   11.5595 C   0  0  0  0  0  0  0  0  0  0  0  0
   20.7647   68.3192   12.7674 N   0  0  0  0  0  0  0  0  0  0  0  0
   20.1608   66.3295   11.4403 C   0  0  0  0  0  0  0  0  0  0  0  0
   19.5966   65.5997   12.5477 C   0  0  0  0  0  0  0  0  0  0  0  0
   19.1365   64.9950   13.4497 N   0  0  0  0  0  0  0  0  0  0  0  0
   21.8020   68.0000    8.0082 N   0  0  0  0  0  0  0  0  0  0  0  0
   22.1809   69.2370    7.6326 C   0  0  0  0  0  0  0  0  0  0  0  0
   22.1049   70.2366    8.3430 O   0  0  0  0  0  0  0  0  0  0  0  0
   22.7663   69.3180    6.2573 C   0  0  0  0  0  0  0  0  0  0  0  0
   22.0784   68.3259    5.3403 C   0  0  0  0  0  0  0  0  0  0  0  0
   20.8634   68.6351    4.6872 C   0  0  0  0  0  0  0  0  0  0  0  0
   20.0171   70.3273    4.8674 Br  0  0  0  0  0  0  0  0  0  0  0  0
   20.2311   67.6834    3.8811 C   0  0  0  0  0  0  0  0  0  0  0  0
   20.7960   66.4158    3.7155 C   0  0  0  0  0  0  0  0  0  0  0  0
   21.9958   66.1008    4.3597 C   0  0  0  0  0  0  0  0  0  0  0  0
   22.7611   64.3823    4.1415 Br  0  0  0  0  0  0  0  0  0  0  0  0
   22.6349   67.0464    5.1658 C   0  0  0  0  0  0  0  0  0  0  0  0
   18.9607   62.0364    7.7580 H   0  0  0  0  0  0  0  0  0  0  0  0
   17.9278   62.6295    9.1126 H   0  0  0  0  0  0  0  0  0  0  0  0
   19.5187   61.8585    9.4643 H   0  0  0  0  0  0  0  0  0  0  0  0
   19.0941   64.5421    7.9730 H   0  0  0  0  0  0  0  0  0  0  0  0
   20.7030   63.7708    8.3275 H   0  0  0  0  0  0  0  0  0  0  0  0
   21.6951   69.2338   10.5007 H   0  0  0  0  0  0  0  0  0  0  0  0
   20.3948   67.8506   13.5698 H   0  0  0  0  0  0  0  0  0  0  0  0
   21.2036   69.2177   12.7504 H   0  0  0  0  0  0  0  0  0  0  0  0
   21.9325   67.2474    7.3705 H   0  0  0  0  0  0  0  0  0  0  0  0
   23.8536   69.0815    6.3025 H   0  0  0  0  0  0  0  0  0  0  0  0
   22.6474   70.3413    5.8408 H   0  0  0  0  0  0  0  0  0  0  0  0
   19.3028   67.9287    3.3864 H   0  0  0  0  0  0  0  0  0  0  0  0
   20.3072   65.6813    3.0929 H   0  0  0  0  0  0  0  0  0  0  0  0
   23.5587   66.7901    5.6627 H   0  0  0  0  0  0  0  0  0  0  0  0
  1  2  1  0
  1 25  1  0
  1 26  1  0
  1 27  1  0
  2  3  1  0
  2 28  1  0
  2 29  1  0
  3  4  1  0
  4  5  2  0
  4 10  1  0
  5  6  1  0
  6  7  2  0
  6 13  1  0
  7  8  1  0
  7 30  1  0
  8  9  1  0
  8 10  2  0
  9 31  1  0
  9 32  1  0
 10 11  1  0
 11 12  3  0
 13 14  1  0
 13 33  1  0
 14 15  2  0
 14 16  1  0
 16 17  1  0
 16 34  1  0
 16 35  1  0
 17 18  2  0
 17 24  1  0
 18 19  1  0
 18 20  1  0
 20 21  2  0
 20 36  1  0
 21 22  1  0
 21 37  1  0
 22 23  1  0
 22 24  2  0
 24 38  1  0
M  END
> <intraLJ>
24.910    

> <intraEL>
-20.992   

> <intraDihe>
6.611     

> <interLJ>
0.000     

> <interEJ>
0.000     

> <gridLJ>
-7.545    

> <gridEL>
0.000     

> <totalE>
2.983     

> <LGFE>
-7.545  

> <LE>
-0.314  

> <SMILES>
CCOc1nc(NC(=O)Cc2cc(Br)ccc2Br)cc(N)c1C#N

> <atom.dprop.GFE>
-0.4948 -0.5175 -0.1610 -0.0589 -0.4670 -0.4316 -0.3228 -0.2797 -1.0780 -0.2096 0.0000 0.0000 -1.0190 0.0000 -0.2920 -0.3596 -0.2016 -0.0893 -0.7380 0.0548 -0.1298 -0.1969 -0.3610 -0.1919 0.0000 0.0000 0.0000 0.0000 0.0000 0.0000 0.0000 0.0000 0.0000 0.0000 0.0000 0.0000 0.0000 0.0000

> <atom.prop.CLASS>
PRPC PRPC DMEO GEHC IMIN GEHC BENC BENC FORN BENC NCLA NCLA FORN NCLA FORO PRPC BENC BENC BRBX BENC BENC BENC BRBX BENC NCLA NCLA NCLA NCLA NCLA NCLA NCLA NCLA NCLA NCLA NCLA NCLA NCLA NCLA

> <cluster_id>
1

> <rmsd_to_cluster_rep>
0.00    

> <ligRMSD>
1.50    

> <ligCOMD>
1.00    

$$$$
jnk1_abbott_21_6r_888
     RDKit          3D

 53 54  0  0  0  0  0  0  0  0999 V2000
   20.5836   61.3291    7.3455 C   0  0  0  0  0  0  0  0  0  0  0  0
   20.7156   62.8045    7.7308 C   0  0  0  0  0  0  0  0  0  0  0  0
   19.9572   62.9974    8.9195 O   0  0  0  0  0  0  0  0  0  0  0  0
   19.8729   64.3028    9.4326 C   0  0  0  0  0  0  0  0  0  0  0  0
   20.5103   65.2763    8.7963 N   0  0  0  0  0  0  0  0  0  0  0  0
   20.4811   66.5290    9.2473 C   0  0  0  0  0  0  0  0  0  0  0  0
   19.7501   66.8891   10.3789 C   0  0  0  0  0  0  0  0  0  0  0  0
   19.0701   65.8798   11.0760 C   0  0  0  0  0  0  0  0  0  0  0  0
   18.3627   66.2447   12.2210 N   0  0  0  0  0  0  0  0  0  0  0  0
   19.1286   64.5469   10.6035 C   0  0  0  0  0  0  0  0  0  0  0  0
   18.4841   63.4403   11.2659 C   0  0  0  0  0  0  0  0  0  0  0  0
   17.9616   62.5313   11.8062 N   0  0  0  0  0  0  0  0  0  0  0  0
   21.2442   67.4316    8.4662 N   0  0  0  0  0  0  0  0  0  0  0  0
   21.6984   68.6682    8.7572 C   0  0  0  0  0  0  0  0  0  0  0  0
   21.4863   69.2504    9.8185 O   0  0  0  0  0  0  0  0  0  0  0  0
   22.5694   69.2989    7.7074 C   0  0  0  0  0  0  0  0  0  0  0  0
   21.9600   69.2448    6.3154 C   0  0  0  0  0  0  0  0  0  0  0  0
   22.0966   68.0979    5.5082 C   0  0  0  0  0  0  0  0  0  0  0  0
   22.7643   66.9815    6.0567 O   0  0  0  0  0  0  0  0  0  0  0  0
   22.7684   65.7700    5.3105 C   0  0  0  0  0  0  0  0  0  0  0  0
   21.5525   68.0972    4.2090 C   0  0  0  0  0  0  0  0  0  0  0  0
   20.8723   69.2188    3.7178 C   0  0  0  0  0  0  0  0  0  0  0  0
   20.7342   70.3645    4.5239 C   0  0  0  0  0  0  0  0  0  0  0  0
   21.2857   70.3712    5.8195 C   0  0  0  0  0  0  0  0  0  0  0  0
   20.0106   71.4589    3.9981 O   0  0  0  0  0  0  0  0  0  0  0  0
   19.9302   72.6334    4.7992 C   0  0  0  0  0  0  0  0  0  0  0  0
   20.2656   69.3037    2.4261 N   0  0  0  0  0  0  0  0  0  0  0  0
   20.1862   68.3844    1.4318 C   0  0  0  0  0  0  0  0  0  0  0  0
   20.7098   67.2734    1.4584 O   0  0  0  0  0  0  0  0  0  0  0  0
   19.3920   68.7956    0.2374 C   0  0  0  0  0  0  0  0  0  0  0  0
   21.1632   61.1126    6.4234 H   0  0  0  0  0  0  0  0  0  0  0  0
   19.5180   61.0726    7.1616 H   0  0  0  0  0  0  0  0  0  0  0  0
   20.9640   60.6799    8.1634 H   0  0  0  0  0  0  0  0  0  0  0  0
   20.3224   63.4377    6.9035 H   0  0  0  0  0  0  0  0  0  0  0  0
   21.7852   63.0522    7.9133 H   0  0  0  0  0  0  0  0  0  0  0  0
   19.7013   67.9096   10.7220 H   0  0  0  0  0  0  0  0  0  0  0  0
   17.9096   65.5084   12.7239 H   0  0  0  0  0  0  0  0  0  0  0  0
   18.4082   67.2080   12.4856 H   0  0  0  0  0  0  0  0  0  0  0  0
   21.5140   67.0251    7.5960 H   0  0  0  0  0  0  0  0  0  0  0  0
   23.5509   68.7749    7.6803 H   0  0  0  0  0  0  0  0  0  0  0  0
   22.7631   70.3607    7.9792 H   0  0  0  0  0  0  0  0  0  0  0  0
   23.2946   64.9907    5.9026 H   0  0  0  0  0  0  0  0  0  0  0  0
   23.3102   65.8990    4.3484 H   0  0  0  0  0  0  0  0  0  0  0  0
   21.7297   65.4217    5.1194 H   0  0  0  0  0  0  0  0  0  0  0  0
   21.6511   67.2300    3.5826 H   0  0  0  0  0  0  0  0  0  0  0  0
   21.1916   71.2241    6.4730 H   0  0  0  0  0  0  0  0  0  0  0  0
   19.3765   73.4113    4.2309 H   0  0  0  0  0  0  0  0  0  0  0  0
   20.9472   73.0229    5.0248 H   0  0  0  0  0  0  0  0  0  0  0  0
   19.3766   72.4423    5.7436 H   0  0  0  0  0  0  0  0  0  0  0  0
   19.8227   70.1859    2.2877 H   0  0  0  0  0  0  0  0  0  0  0  0
   18.9931   69.8256    0.3599 H   0  0  0  0  0  0  0  0  0  0  0  0
   18.5374   68.0994    0.0920 H   0  0  0  0  0  0  0  0  0  0  0  0
   20.0297   68.7671   -0.6727 H   0  0  0  0  0  0  0  0  0  0  0  0
  1  2  1  0
  1 31  1  0
  1 32  1  0
  1 33  1  0
  2  3  1  0
  2 34  1  0
  2 35  1  0
  3  4  1  0
  4  5  2  0
  4 10  1  0
  5  6  1  0
  6  7  2  0
  6 13  1  0
  7  8  1  0
  7 36  1  0
  8  9  1  0
  8 10  2  0
  9 37  1  0
  9 38  1  0
 10 11  1  0
 11 12  3  0
 13 14  1  0
 13 39  1  0
 14 15  2  0
 14 16  1  0
 16 17  1  0
 16 40  1  0
 16 41  1  0
 17 18  2  0
 17 24  1  0
 18 19  1  0
 18 21  1  0
 19 20  1  0
 20 42  1  0
 20 43  1  0
 20 44  1  0
 21 22  2  0
 21 45  1  0
 22 23  1  0
 22 27  1  0
 23 24  2  0
 23 25  1  0
 24 46  1  0
 25 26  1  0
 26 47  1  0
 26 48  1  0
 26 49  1  0
 27 28  1  0
 27 50  1  0
 28 29  2  0
 28 30  1  0
 30 51  1  0
 30 52  1  0
 30 53  1  0
M  END
> <intraLJ>
29.127    

> <intraEL>
-24.953   

> <intraDihe>
7.522     

> <interLJ>
0.000     

> <interEJ>
0.000     

> <gridLJ>
-10.446   

> <gridEL>
0.000     

> <totalE>
1.250     

> <LGFE>
-10.446 

> <LE>
-0.348  

> <SMILES>
CCOc1nc(NC(=O)Cc2cc(OC)c(NC(C)=O)cc2OC)cc(N)c1C#N

> <atom.dprop.GFE>
-0.5048 -0.5395 -1.2840 -0.0559 -0.3510 -0.4116 -0.3228 -0.2896 0.3800 -0.1354 0.0000 0.0000 -0.7360 0.0000 -1.2440 -0.2687 -0.0885 -0.2016 -1.8700 -0.3720 -0.1331 -0.0648 -0.1039 0.1204 -1.3490 -0.2637 0.0940 0.0000 -0.3150 -0.1359 0.0000 0.0000 0.0000 0.0000 0.0000 0.0000 0.0000 0.0000 0.0000 0.0000 0.0000 0.0000 0.0000 0.0000 0.0000 0.0000 0.0000 0.0000 0.0000 0.0000 0.0000 0.0000 0.0000

> <atom.prop.CLASS>
PRPC PRPC DMEO GEHC IMIN GEHC BENC BENC FORN BENC NCLA NCLA FORN NCLA FORO PRPC BENC BENC DMEO PRPC BENC BENC BENC BENC DMEO PRPC FORN NCLA FORO PRPC NCLA NCLA NCLA NCLA NCLA NCLA NCLA NCLA NCLA NCLA NCLA NCLA NCLA NCLA NCLA NCLA NCLA NCLA NCLA NCLA NCLA NCLA NCLA

> <cluster_id>
1

> <rmsd_to_cluster_rep>
0.00    

> <ligRMSD>
1.39    

> <ligCOMD>
0.98    

$$$$
jnk1_abbott_22_6s_1000
     RDKit          3D

 52 53  0  0  0  0  0  0  0  0999 V2000
   20.3824   61.3261    7.2846 C   0  0  0  0  0  0  0  0  0  0  0  0
   20.5595   62.7858    7.7088 C   0  0  0  0  0  0  0  0  0  0  0  0
   19.7784   62.9969    8.8804 O   0  0  0  0  0  0  0  0  0  0  0  0
   19.7436   64.3066    9.3971 C   0  0  0  0  0  0  0  0  0  0  0  0
   20.4381   65.2539    8.7780 N   0  0  0  0  0  0  0  0  0  0  0  0
   20.4639   66.5097    9.2230 C   0  0  0  0  0  0  0  0  0  0  0  0
   19.7178   66.9002   10.3361 C   0  0  0  0  0  0  0  0  0  0  0  0
   18.9692   65.9231   11.0158 C   0  0  0  0  0  0  0  0  0  0  0  0
   18.2165   66.3173   12.1243 N   0  0  0  0  0  0  0  0  0  0  0  0
   18.9821   64.5874   10.5474 C   0  0  0  0  0  0  0  0  0  0  0  0
   18.2654   63.5114   11.1875 C   0  0  0  0  0  0  0  0  0  0  0  0
   17.6861   62.6261   11.7090 N   0  0  0  0  0  0  0  0  0  0  0  0
   21.2926   67.3804    8.4627 N   0  0  0  0  0  0  0  0  0  0  0  0
   21.7474   68.6228    8.7453 C   0  0  0  0  0  0  0  0  0  0  0  0
   21.4716   69.2434    9.7696 O   0  0  0  0  0  0  0  0  0  0  0  0
   22.6947   69.2147    7.7386 C   0  0  0  0  0  0  0  0  0  0  0  0
   22.0996   69.2940    6.3404 C   0  0  0  0  0  0  0  0  0  0  0  0
   22.0648   68.1640    5.4997 C   0  0  0  0  0  0  0  0  0  0  0  0
   22.5458   66.9370    6.0178 O   0  0  0  0  0  0  0  0  0  0  0  0
   22.4202   65.7759    5.2046 C   0  0  0  0  0  0  0  0  0  0  0  0
   21.5524   68.2947    4.1923 C   0  0  0  0  0  0  0  0  0  0  0  0
   21.0762   69.5332    3.7152 C   0  0  0  0  0  0  0  0  0  0  0  0
   20.5037   69.6857    2.0359 S   0  0  0  0  0  0  0  0  0  0  0  0
   20.5896   68.3742    1.4460 O   0  0  0  0  0  0  0  0  0  0  0  0
   19.2480   70.3878    2.1142 O   0  0  0  0  0  0  0  0  0  0  0  0
   21.7382   70.7435    1.2817 C   0  0  0  0  0  0  0  0  0  0  0  0
   21.1207   70.6658    4.5620 C   0  0  0  0  0  0  0  0  0  0  0  0
   21.6301   70.5288    5.8691 C   0  0  0  0  0  0  0  0  0  0  0  0
   20.6397   71.9033    4.0708 O   0  0  0  0  0  0  0  0  0  0  0  0
   20.7751   73.0461    4.9079 C   0  0  0  0  0  0  0  0  0  0  0  0
   20.9783   61.1100    6.3727 H   0  0  0  0  0  0  0  0  0  0  0  0
   19.3134   61.1144    7.0668 H   0  0  0  0  0  0  0  0  0  0  0  0
   20.7169   60.6442    8.0958 H   0  0  0  0  0  0  0  0  0  0  0  0
   20.2159   63.4512    6.8843 H   0  0  0  0  0  0  0  0  0  0  0  0
   21.6339   62.9846    7.9221 H   0  0  0  0  0  0  0  0  0  0  0  0
   19.7032   67.9229   10.6758 H   0  0  0  0  0  0  0  0  0  0  0  0
   17.9295   65.5553   12.7050 H   0  0  0  0  0  0  0  0  0  0  0  0
   18.4945   67.2008   12.5011 H   0  0  0  0  0  0  0  0  0  0  0  0
   21.6105   66.9445    7.6236 H   0  0  0  0  0  0  0  0  0  0  0  0
   23.6188   68.5963    7.6927 H   0  0  0  0  0  0  0  0  0  0  0  0
   22.9905   70.2360    8.0683 H   0  0  0  0  0  0  0  0  0  0  0  0
   22.7903   64.8979    5.7765 H   0  0  0  0  0  0  0  0  0  0  0  0
   23.0324   65.8740    4.2818 H   0  0  0  0  0  0  0  0  0  0  0  0
   21.3560   65.5944    4.9375 H   0  0  0  0  0  0  0  0  0  0  0  0
   21.5240   67.4493    3.5239 H   0  0  0  0  0  0  0  0  0  0  0  0
   22.7292   70.2440    1.3216 H   0  0  0  0  0  0  0  0  0  0  0  0
   21.7862   71.7123    1.8220 H   0  0  0  0  0  0  0  0  0  0  0  0
   21.4601   70.9276    0.2225 H   0  0  0  0  0  0  0  0  0  0  0  0
   21.6707   71.3632    6.5519 H   0  0  0  0  0  0  0  0  0  0  0  0
   20.4274   73.9394    4.3460 H   0  0  0  0  0  0  0  0  0  0  0  0
   21.8394   73.2030    5.1899 H   0  0  0  0  0  0  0  0  0  0  0  0
   20.1486   72.9487    5.8209 H   0  0  0  0  0  0  0  0  0  0  0  0
  1  2  1  0
  1 31  1  0
  1 32  1  0
  1 33  1  0
  2  3  1  0
  2 34  1  0
  2 35  1  0
  3  4  1  0
  4  5  2  0
  4 10  1  0
  5  6  1  0
  6  7  2  0
  6 13  1  0
  7  8  1  0
  7 36  1  0
  8  9  1  0
  8 10  2  0
  9 37  1  0
  9 38  1  0
 10 11  1  0
 11 12  3  0
 13 14  1  0
 13 39  1  0
 14 15  2  0
 14 16  1  0
 16 17  1  0
 16 40  1  0
 16 41  1  0
 17 18  2  0
 17 28  1  0
 18 19  1  0
 18 21  1  0
 19 20  1  0
 20 42  1  0
 20 43  1  0
 20 44  1  0
 21 22  2  0
 21 45  1  0
 22 23  1  0
 22 27  1  0
 23 24  2  0
 23 25  2  0
 23 26  1  0
 26 46  1  0
 26 47  1  0
 26 48  1  0
 27 28  2  0
 27 29  1  0
 28 49  1  0
 29 30  1  0
 30 50  1  0
 30 51  1  0
 30 52  1  0
M  END
> <intraLJ>
28.607    

> <intraEL>
-21.339   

> <intraDihe>
9.141     

> <interLJ>
0.000     

> <interEJ>
0.000     

> <gridLJ>
-10.180   

> <gridEL>
0.000     

> <totalE>
6.230     

> <LGFE>
-10.180 

> <LE>
-0.339  

> <SMILES>
CCOc1nc(NC(=O)Cc2cc(OC)c(S(C)(=O)=O)cc2OC)cc(N)c1C#N

> <atom.dprop.GFE>
-0.5048 -0.5395 -1.2840 -0.0889 -0.3510 -0.4116 -0.3228 -0.2896 0.3800 -0.1354 0.0000 0.0000 -0.7360 0.0000 -1.2440 -0.2687 -0.0885 -0.2016 -1.8700 -0.3720 -0.1331 -0.0631 0.0000 0.0300 -0.0640 -0.0266 -0.0681 0.1204 -1.3490 -0.2977 0.0000 0.0000 0.0000 0.0000 0.0000 0.0000 0.0000 0.0000 0.0000 0.0000 0.0000 0.0000 0.0000 0.0000 0.0000 0.0000 0.0000 0.0000 0.0000 0.0000 0.0000 0.0000

> <atom.prop.CLASS>
PRPC PRPC DMEO GEHC IMIN GEHC BENC BENC FORN BENC NCLA NCLA FORN NCLA FORO PRPC BENC BENC DMEO PRPC BENC BENC NCLA FORO FORO PRPC BENC BENC DMEO PRPC NCLA NCLA NCLA NCLA NCLA NCLA NCLA NCLA NCLA NCLA NCLA NCLA NCLA NCLA NCLA NCLA NCLA NCLA NCLA NCLA NCLA NCLA

> <cluster_id>
1

> <rmsd_to_cluster_rep>
0.00    

> <ligRMSD>
1.39    

> <ligCOMD>
0.95    

$$$$
jnk1_abbott_23_6t_2gmx_1176
     RDKit          3D

 46 47  0  0  0  0  0  0  0  0999 V2000
   21.1374   67.4545    4.1726 C   0  0  0  0  0  0  0  0  0  0  0  0
   21.0098   66.4454    3.8122 H   0  0  0  0  0  0  0  0  0  0  0  0
   17.8602   65.1018   13.3147 N   0  0  0  0  0  0  0  0  0  0  0  0
   21.9513   67.7033    5.2950 C   0  0  0  0  0  0  0  0  0  0  0  0
   22.1369   69.0241    5.7504 C   0  0  0  0  0  0  0  0  0  0  0  0
   21.5092   70.0771    5.0665 C   0  0  0  0  0  0  0  0  0  0  0  0
   21.6546   71.0931    5.4037 H   0  0  0  0  0  0  0  0  0  0  0  0
   20.6987   69.8309    3.9493 C   0  0  0  0  0  0  0  0  0  0  0  0
   20.5084   68.5110    3.4938 C   0  0  0  0  0  0  0  0  0  0  0  0
   23.0159   69.3190    6.9556 C   0  0  0  0  0  0  0  0  0  0  0  0
   23.4364   70.3443    6.8553 H   0  0  0  0  0  0  0  0  0  0  0  0
   23.8651   68.6007    6.9649 H   0  0  0  0  0  0  0  0  0  0  0  0
   22.2394   69.2186    8.2418 C   0  0  0  0  0  0  0  0  0  0  0  0
   21.7378   67.9895    8.5178 N   0  0  0  0  0  0  0  0  0  0  0  0
   21.8680   67.2728    7.8381 H   0  0  0  0  0  0  0  0  0  0  0  0
   20.9367   67.5285    9.6067 C   0  0  0  0  0  0  0  0  0  0  0  0
   22.0640   70.2142    8.9421 O   0  0  0  0  0  0  0  0  0  0  0  0
   20.3809   66.3307    9.4125 N   0  0  0  0  0  0  0  0  0  0  0  0
   19.6070   65.7587   10.3269 C   0  0  0  0  0  0  0  0  0  0  0  0
   19.3408   66.3737   11.5609 C   0  0  0  0  0  0  0  0  0  0  0  0
   19.9549   67.6254   11.8079 C   0  0  0  0  0  0  0  0  0  0  0  0
   20.7692   68.2124   10.8133 C   0  0  0  0  0  0  0  0  0  0  0  0
   21.2493   69.1631   10.9833 H   0  0  0  0  0  0  0  0  0  0  0  0
   20.1198   70.9052    3.2721 O   0  0  0  0  0  0  0  0  0  0  0  0
   18.9653   71.3901    3.9504 C   0  0  0  0  0  0  0  0  0  0  0  0
   18.5580   72.2576    3.3883 H   0  0  0  0  0  0  0  0  0  0  0  0
   19.2153   71.7281    4.9806 H   0  0  0  0  0  0  0  0  0  0  0  0
   18.1790   70.6044    3.9981 H   0  0  0  0  0  0  0  0  0  0  0  0
   22.6531   66.6689    5.9259 O   0  0  0  0  0  0  0  0  0  0  0  0
   22.2571   65.3665    5.5190 C   0  0  0  0  0  0  0  0  0  0  0  0
   22.8189   64.6382    6.1398 H   0  0  0  0  0  0  0  0  0  0  0  0
   22.5060   65.1769    4.4528 H   0  0  0  0  0  0  0  0  0  0  0  0
   21.1680   65.2101    5.6843 H   0  0  0  0  0  0  0  0  0  0  0  0
   19.7735   68.2933   13.0204 N   0  0  0  0  0  0  0  0  0  0  0  0
   20.5660   68.8530   13.2613 H   0  0  0  0  0  0  0  0  0  0  0  0
   19.3458   67.7081   13.7096 H   0  0  0  0  0  0  0  0  0  0  0  0
   18.5215   65.6762   12.5244 C   0  0  0  0  0  0  0  0  0  0  0  0
   19.0197   64.5234    9.9984 O   0  0  0  0  0  0  0  0  0  0  0  0
   19.5544   63.8933    8.8334 C   0  0  0  0  0  0  0  0  0  0  0  0
   19.4318   62.7949    8.9640 H   0  0  0  0  0  0  0  0  0  0  0  0
   20.6441   64.0875    8.6971 H   0  0  0  0  0  0  0  0  0  0  0  0
   18.7930   64.3239    7.5791 C   0  0  0  0  0  0  0  0  0  0  0  0
   17.7264   64.0213    7.6500 H   0  0  0  0  0  0  0  0  0  0  0  0
   19.2353   63.8563    6.6738 H   0  0  0  0  0  0  0  0  0  0  0  0
   18.8309   65.4236    7.4683 H   0  0  0  0  0  0  0  0  0  0  0  0
   19.4171   68.1289    1.9587 Br  0  0  0  0  0  0  0  0  0  0  0  0
  1  2  1  0
  1  4  2  0
  1  9  1  0
  3 37  3  0
  4  5  1  0
  4 29  1  0
  5  6  2  0
  5 10  1  0
  6  7  1  0
  6  8  1  0
  8  9  2  0
  8 24  1  0
  9 46  1  0
 10 11  1  0
 10 12  1  0
 10 13  1  0
 13 14  1  0
 13 17  2  0
 14 15  1  0
 14 16  1  0
 16 18  2  0
 16 22  1  0
 18 19  1  0
 19 20  2  0
 19 38  1  0
 20 21  1  0
 20 37  1  0
 21 22  2  0
 21 34  1  0
 22 23  1  0
 24 25  1  0
 25 26  1  0
 25 27  1  0
 25 28  1  0
 29 30  1  0
 30 31  1  0
 30 32  1  0
 30 33  1  0
 34 35  1  0
 34 36  1  0
 38 39  1  0
 39 40  1  0
 39 41  1  0
 39 42  1  0
 42 43  1  0
 42 44  1  0
 42 45  1  0
M  END
> <intraLJ>
27.151    

> <intraEL>
-18.864   

> <intraDihe>
16.277    

> <interLJ>
0.000     

> <interEJ>
0.000     

> <gridLJ>
-10.475   

> <gridEL>
0.000     

> <totalE>
14.089    

> <LGFE>
-10.475 

> <LE>
-0.388  

> <SMILES>
CCOc1nc(NC(=O)Cc2cc(OC)c(Br)cc2OC)cc(N)c1C#N

> <atom.dprop.GFE>
-0.1331 0.0000 0.0000 -0.2016 -0.1530 -0.0593 0.0000 -0.0815 -0.0262 -0.0833 0.0000 0.0000 0.0000 -0.7360 0.0000 -0.4316 -0.2920 -0.4670 -0.1538 -0.2406 -0.2797 -0.3392 0.0000 -1.2400 -0.4249 0.0000 0.0000 0.0000 -1.8700 -0.3720 0.0000 0.0000 0.0000 -1.0780 0.0000 0.0000 0.0000 -0.1610 -0.5175 0.0000 0.0000 -0.5125 0.0000 0.0000 0.0000 -0.6210

> <atom.prop.CLASS>
BENC NCLA NCLA BENC BENC BENC NCLA BENC BENC PRPC NCLA NCLA NCLA FORN NCLA GEHC FORO IMIN GEHC BENC BENC BENC NCLA DMEO PRPC NCLA NCLA NCLA DMEO PRPC NCLA NCLA NCLA FORN NCLA NCLA NCLA DMEO PRPC NCLA NCLA PRPC NCLA NCLA NCLA BRBX

> <cluster_id>
1

> <rmsd_to_cluster_rep>
0.00    

> <ligRMSD>
1.35    

> <ligCOMD>
1.17    

$$$$
jnk1_abbott_24_6u_730
     RDKit          3D

 48 49  0  0  0  0  0  0  0  0999 V2000
   19.7795   63.1278    6.4307 C   0  0  0  0  0  0  0  0  0  0  0  0
   20.5586   62.7638    7.6963 C   0  0  0  0  0  0  0  0  0  0  0  0
   19.7974   62.9960    8.8823 O   0  0  0  0  0  0  0  0  0  0  0  0
   19.7561   64.3178    9.3796 C   0  0  0  0  0  0  0  0  0  0  0  0
   20.4589   65.2573    8.7588 N   0  0  0  0  0  0  0  0  0  0  0  0
   20.5364   66.5042    9.2173 C   0  0  0  0  0  0  0  0  0  0  0  0
   19.8519   66.8953   10.3678 C   0  0  0  0  0  0  0  0  0  0  0  0
   19.0936   65.9302   11.0544 C   0  0  0  0  0  0  0  0  0  0  0  0
   18.4192   66.3215   12.2131 N   0  0  0  0  0  0  0  0  0  0  0  0
   19.0290   64.6082   10.5501 C   0  0  0  0  0  0  0  0  0  0  0  0
   18.2943   63.5453   11.1907 C   0  0  0  0  0  0  0  0  0  0  0  0
   17.6996   62.6691   11.7102 N   0  0  0  0  0  0  0  0  0  0  0  0
   21.3685   67.3569    8.4418 N   0  0  0  0  0  0  0  0  0  0  0  0
   21.7784   68.6225    8.6841 C   0  0  0  0  0  0  0  0  0  0  0  0
   21.4424   69.2808    9.6660 O   0  0  0  0  0  0  0  0  0  0  0  0
   22.7517   69.1925    7.6903 C   0  0  0  0  0  0  0  0  0  0  0  0
   22.1708   69.2768    6.2877 C   0  0  0  0  0  0  0  0  0  0  0  0
   22.1397   68.1520    5.4451 C   0  0  0  0  0  0  0  0  0  0  0  0
   22.6231   66.9257    5.9606 O   0  0  0  0  0  0  0  0  0  0  0  0
   22.5162   65.7675    5.1406 C   0  0  0  0  0  0  0  0  0  0  0  0
   21.6137   68.2817    4.1459 C   0  0  0  0  0  0  0  0  0  0  0  0
   21.1062   69.5151    3.6615 C   0  0  0  0  0  0  0  0  0  0  0  0
   20.5705   69.5856    2.2965 N   0  0  0  0  0  0  0  0  0  0  0  0
   19.6256   70.3420    2.0897 O   0  0  0  0  0  0  0  0  0  0  0  0
   21.0828   68.8609    1.4467 O   0  0  0  0  0  0  0  0  0  0  0  0
   21.1553   70.6440    4.5302 C   0  0  0  0  0  0  0  0  0  0  0  0
   21.6862   70.5062    5.8261 C   0  0  0  0  0  0  0  0  0  0  0  0
   20.6388   71.8820    4.0774 O   0  0  0  0  0  0  0  0  0  0  0  0
   20.8059   73.0164    4.9205 C   0  0  0  0  0  0  0  0  0  0  0  0
   20.3758   62.8808    5.5265 H   0  0  0  0  0  0  0  0  0  0  0  0
   19.5462   64.2135    6.4133 H   0  0  0  0  0  0  0  0  0  0  0  0
   18.8248   62.5609    6.3895 H   0  0  0  0  0  0  0  0  0  0  0  0
   21.5457   63.2781    7.7164 H   0  0  0  0  0  0  0  0  0  0  0  0
   20.7752   61.6724    7.6666 H   0  0  0  0  0  0  0  0  0  0  0  0
   19.8924   67.9095   10.7305 H   0  0  0  0  0  0  0  0  0  0  0  0
   18.1419   65.5525   12.7893 H   0  0  0  0  0  0  0  0  0  0  0  0
   18.7648   67.1758   12.6013 H   0  0  0  0  0  0  0  0  0  0  0  0
   21.7371   66.8867    7.6432 H   0  0  0  0  0  0  0  0  0  0  0  0
   23.6643   68.5564    7.6581 H   0  0  0  0  0  0  0  0  0  0  0  0
   23.0620   70.2097    8.0190 H   0  0  0  0  0  0  0  0  0  0  0  0
   22.8884   64.8903    5.7123 H   0  0  0  0  0  0  0  0  0  0  0  0
   23.1369   65.8748    4.2245 H   0  0  0  0  0  0  0  0  0  0  0  0
   21.4563   65.5777    4.8623 H   0  0  0  0  0  0  0  0  0  0  0  0
   21.5800   67.4295    3.4851 H   0  0  0  0  0  0  0  0  0  0  0  0
   21.7173   71.3360    6.5153 H   0  0  0  0  0  0  0  0  0  0  0  0
   20.4416   73.9150    4.3778 H   0  0  0  0  0  0  0  0  0  0  0  0
   21.8798   73.1683    5.1664 H   0  0  0  0  0  0  0  0  0  0  0  0
   20.2103   72.9163    5.8532 H   0  0  0  0  0  0  0  0  0  0  0  0
  1  2  1  0
  1 30  1  0
  1 31  1  0
  1 32  1  0
  2  3  1  0
  2 33  1  0
  2 34  1  0
  3  4  1  0
  4  5  2  0
  4 10  1  0
  5  6  1  0
  6  7  2  0
  6 13  1  0
  7  8  1  0
  7 35  1  0
  8  9  1  0
  8 10  2  0
  9 36  1  0
  9 37  1  0
 10 11  1  0
 11 12  3  0
 13 14  1  0
 13 38  1  0
 14 15  2  0
 14 16  1  0
 16 17  1  0
 16 39  1  0
 16 40  1  0
 17 18  2  0
 17 27  1  0
 18 19  1  0
 18 21  1  0
 19 20  1  0
 20 41  1  0
 20 42  1  0
 20 43  1  0
 21 22  2  0
 21 44  1  0
 22 23  1  0
 22 26  1  0
 23 24  1  0
 23 25  2  0
 26 27  2  0
 26 28  1  0
 27 45  1  0
 28 29  1  0
 29 46  1  0
 29 47  1  0
 29 48  1  0
M  CHG  2  23   1  24  -1
M  END
> <intraLJ>
31.433    

> <intraEL>
-19.233   

> <intraDihe>
10.480    

> <interLJ>
0.000     

> <interEJ>
0.000     

> <gridLJ>
-10.109   

> <gridEL>
0.000     

> <totalE>
12.571    

> <LGFE>
-10.109 

> <LE>
-0.349  

> <SMILES>
CCOc1nc(NC(=O)Cc2cc(OC)c([N+](=O)[O-])cc2OC)cc(N)c1C#N

> <atom.dprop.GFE>
-0.4089 -0.5395 -1.2840 -0.0889 -0.3510 -0.4116 -0.2640 -0.2896 0.3800 -0.1354 0.0000 0.0000 -0.7360 0.0000 -1.2440 -0.2687 -0.0885 -0.2016 -1.8700 -0.3720 -0.1331 -0.0631 0.0000 -0.0640 -0.0810 -0.0681 0.1204 -1.3490 -0.2977 0.0000 0.0000 0.0000 0.0000 0.0000 0.0000 0.0000 0.0000 0.0000 0.0000 0.0000 0.0000 0.0000 0.0000 0.0000 0.0000 0.0000 0.0000 0.0000

> <atom.prop.CLASS>
PRPC PRPC DMEO GEHC IMIN GEHC BENC BENC FORN BENC NCLA NCLA FORN NCLA FORO PRPC BENC BENC DMEO PRPC BENC BENC NCLA FORO FORO BENC BENC DMEO PRPC NCLA NCLA NCLA NCLA NCLA NCLA NCLA NCLA NCLA NCLA NCLA NCLA NCLA NCLA NCLA NCLA NCLA NCLA NCLA

> <cluster_id>
1

> <rmsd_to_cluster_rep>
0.00    

> <ligRMSD>
1.36    

> <ligCOMD>
1.01    

$$$$
jnk1_abbott_25_7_1053
     RDKit          3D

 29 29  0  0  0  0  0  0  0  0999 V2000
   17.9902   62.0410    8.7338 C   0  0  0  0  0  0  0  0  0  0  0  0
   18.7743   63.3557    8.7274 C   0  0  0  0  0  0  0  0  0  0  0  0
   18.7834   63.8458   10.0631 O   0  0  0  0  0  0  0  0  0  0  0  0
   19.4463   65.0584   10.3079 C   0  0  0  0  0  0  0  0  0  0  0  0
   20.0402   65.6725    9.2930 N   0  0  0  0  0  0  0  0  0  0  0  0
   20.7002   66.8142    9.4725 C   0  0  0  0  0  0  0  0  0  0  0  0
   20.7606   67.4433   10.7181 C   0  0  0  0  0  0  0  0  0  0  0  0
   20.1467   66.8145   11.8096 C   0  0  0  0  0  0  0  0  0  0  0  0
   20.2393   67.4402   13.0529 N   0  0  0  0  0  0  0  0  0  0  0  0
   19.4725   65.5868   11.6135 C   0  0  0  0  0  0  0  0  0  0  0  0
   18.8345   64.8625   12.6834 C   0  0  0  0  0  0  0  0  0  0  0  0
   18.3179   64.2746   13.5656 N   0  0  0  0  0  0  0  0  0  0  0  0
   21.2918   67.3269    8.2895 N   0  0  0  0  0  0  0  0  0  0  0  0
   22.2851   68.2650    8.1850 C   0  0  0  0  0  0  0  0  0  0  0  0
   22.6877   68.3199    6.8938 O   0  0  0  0  0  0  0  0  0  0  0  0
   23.7329   69.2506    6.5717 C   0  0  0  0  0  0  0  0  0  0  0  0
   22.7620   68.9546    9.0834 O   0  0  0  0  0  0  0  0  0  0  0  0
   17.9490   61.6058    7.7130 H   0  0  0  0  0  0  0  0  0  0  0  0
   16.9506   62.2136    9.0868 H   0  0  0  0  0  0  0  0  0  0  0  0
   18.4733   61.3058    9.4128 H   0  0  0  0  0  0  0  0  0  0  0  0
   18.2740   64.0807    8.0464 H   0  0  0  0  0  0  0  0  0  0  0  0
   19.8146   63.1715    8.3771 H   0  0  0  0  0  0  0  0  0  0  0  0
   21.2631   68.3853   10.8602 H   0  0  0  0  0  0  0  0  0  0  0  0
   19.8139   66.9707   13.8267 H   0  0  0  0  0  0  0  0  0  0  0  0
   20.7529   68.2979   13.0837 H   0  0  0  0  0  0  0  0  0  0  0  0
   20.9574   66.8871    7.4623 H   0  0  0  0  0  0  0  0  0  0  0  0
   23.9599   69.1882    5.4857 H   0  0  0  0  0  0  0  0  0  0  0  0
   24.6603   69.0120    7.1373 H   0  0  0  0  0  0  0  0  0  0  0  0
   23.4177   70.2916    6.8039 H   0  0  0  0  0  0  0  0  0  0  0  0
  1  2  1  0
  1 18  1  0
  1 19  1  0
  1 20  1  0
  2  3  1  0
  2 21  1  0
  2 22  1  0
  3  4  1  0
  4  5  2  0
  4 10  1  0
  5  6  1  0
  6  7  2  0
  6 13  1  0
  7  8  1  0
  7 23  1  0
  8  9  1  0
  8 10  2  0
  9 24  1  0
  9 25  1  0
 10 11  1  0
 11 12  3  0
 13 14  1  0
 13 26  1  0
 14 15  1  0
 14 17  2  0
 15 16  1  0
 16 27  1  0
 16 28  1  0
 16 29  1  0
M  END
> <intraLJ>
15.348    

> <intraEL>
-19.335   

> <intraDihe>
6.369     

> <interLJ>
0.000     

> <interEJ>
0.000     

> <gridLJ>
-5.908    

> <gridEL>
0.000     

> <totalE>
-3.526    

> <LGFE>
-5.908  

> <LE>
-0.348  

> <SMILES>
CCOc1nc(NC(=O)OC)cc(N)c1C#N

> <atom.dprop.GFE>
-0.3090 -0.5175 -0.1310 0.0047 0.0920 -0.4116 -0.3392 -0.2096 -1.0780 -0.1528 0.0000 0.0000 -0.7360 0.0000 -1.1160 -0.0833 -0.9210 0.0000 0.0000 0.0000 0.0000 0.0000 0.0000 0.0000 0.0000 0.0000 0.0000 0.0000 0.0000

> <atom.prop.CLASS>
PRPC PRPC DMEO GEHC IMIN GEHC BENC BENC FORN BENC NCLA NCLA FORN NCLA DMEO PRPC FORO NCLA NCLA NCLA NCLA NCLA NCLA NCLA NCLA NCLA NCLA NCLA NCLA

> <cluster_id>
1

> <rmsd_to_cluster_rep>
0.00    

> <ligRMSD>
1.17    

> <ligCOMD>
0.89    

$$$$
jnk1_abbott_26_8.X_1247
     RDKit          3D

 33 33  0  0  0  0  0  0  0  0999 V2000
   18.2477   61.4256   10.7850 C   0  0  0  0  0  0  0  0  0  0  0  0
   18.8414   62.7905   10.4298 C   0  0  0  0  0  0  0  0  0  0  0  0
   18.4960   63.6994   11.4696 O   0  0  0  0  0  0  0  0  0  0  0  0
   18.9746   65.0176   11.3494 C   0  0  0  0  0  0  0  0  0  0  0  0
   19.6989   65.3365   10.2827 N   0  0  0  0  0  0  0  0  0  0  0  0
   20.1932   66.5617   10.1178 C   0  0  0  0  0  0  0  0  0  0  0  0
   19.9165   67.5866   11.0256 C   0  0  0  0  0  0  0  0  0  0  0  0
   19.1594   67.2825   12.1682 C   0  0  0  0  0  0  0  0  0  0  0  0
   18.8879   68.3105   13.0741 N   0  0  0  0  0  0  0  0  0  0  0  0
   18.6752   65.9654   12.3471 C   0  0  0  0  0  0  0  0  0  0  0  0
   17.8968   65.5541   13.4887 C   0  0  0  0  0  0  0  0  0  0  0  0
   17.2642   65.2105   14.4228 N   0  0  0  0  0  0  0  0  0  0  0  0
   20.9478   66.7465    8.9283 N   0  0  0  0  0  0  0  0  0  0  0  0
   21.9248   67.6824    8.7024 C   0  0  0  0  0  0  0  0  0  0  0  0
   22.1787   68.6547    9.4107 O   0  0  0  0  0  0  0  0  0  0  0  0
   22.6289   67.3715    7.5722 N   0  0  0  0  0  0  0  0  0  0  0  0
   23.4645   68.3185    6.8956 C   0  0  0  0  0  0  0  0  0  0  0  0
   22.7647   69.3259    5.9841 C   0  0  0  0  0  0  0  0  0  0  0  0
   18.4945   60.6775   10.0023 H   0  0  0  0  0  0  0  0  0  0  0  0
   17.1419   61.4963   10.8704 H   0  0  0  0  0  0  0  0  0  0  0  0
   18.6527   61.0685   11.7562 H   0  0  0  0  0  0  0  0  0  0  0  0
   18.4204   63.1312    9.4568 H   0  0  0  0  0  0  0  0  0  0  0  0
   19.9482   62.7053   10.3459 H   0  0  0  0  0  0  0  0  0  0  0  0
   20.2604   68.5951   10.8653 H   0  0  0  0  0  0  0  0  0  0  0  0
   18.5823   67.9839   13.9686 H   0  0  0  0  0  0  0  0  0  0  0  0
   19.4945   69.0991   12.9735 H   0  0  0  0  0  0  0  0  0  0  0  0
   20.8033   66.0252    8.2586 H   0  0  0  0  0  0  0  0  0  0  0  0
   22.4085   66.5453    7.0622 H   0  0  0  0  0  0  0  0  0  0  0  0
   24.1819   67.7369    6.2736 H   0  0  0  0  0  0  0  0  0  0  0  0
   24.0875   68.8855    7.6263 H   0  0  0  0  0  0  0  0  0  0  0  0
   22.1987   68.7949    5.1889 H   0  0  0  0  0  0  0  0  0  0  0  0
   23.5071   69.9975    5.5031 H   0  0  0  0  0  0  0  0  0  0  0  0
   22.0521   69.9448    6.5703 H   0  0  0  0  0  0  0  0  0  0  0  0
  1  2  1  0
  1 19  1  0
  1 20  1  0
  1 21  1  0
  2  3  1  0
  2 22  1  0
  2 23  1  0
  3  4  1  0
  4  5  2  0
  4 10  1  0
  5  6  1  0
  6  7  2  0
  6 13  1  0
  7  8  1  0
  7 24  1  0
  8  9  1  0
  8 10  2  0
  9 25  1  0
  9 26  1  0
 10 11  1  0
 11 12  3  0
 13 14  1  0
 13 27  1  0
 14 15  2  0
 14 16  1  0
 16 17  1  0
 16 28  1  0
 17 18  1  0
 17 29  1  0
 17 30  1  0
 18 31  1  0
 18 32  1  0
 18 33  1  0
M  END
> <intraLJ>
14.250    

> <intraEL>
-21.884   

> <intraDihe>
14.242    

> <interLJ>
0.000     

> <interEJ>
0.000     

> <gridLJ>
-4.409    

> <gridEL>
0.000     

> <totalE>
2.198     

> <LGFE>
-4.409  

> <LE>
-0.245  

> <SMILES>
CCNC(=O)Nc1cc(N)c(C#N)c(OCC)n1

> <atom.dprop.GFE>
-0.1935 0.0127 0.5010 0.3300 -1.0620 -0.4555 -0.3392 -0.0306 -0.3900 0.0299 0.0000 0.0000 -0.0640 0.0000 -0.9210 -1.0190 -0.3843 -0.4239 0.0000 0.0000 0.0000 0.0000 0.0000 0.0000 0.0000 0.0000 0.0000 0.0000 0.0000 0.0000 0.0000 0.0000 0.0000

> <atom.prop.CLASS>
PRPC PRPC DMEO GEHC IMIN GEHC BENC BENC FORN BENC NCLA NCLA FORN NCLA FORO FORN PRPC PRPC NCLA NCLA NCLA NCLA NCLA NCLA NCLA NCLA NCLA NCLA NCLA NCLA NCLA NCLA NCLA

> <cluster_id>
1

> <rmsd_to_cluster_rep>
0.00    

> <ligRMSD>
1.51    

> <ligCOMD>
0.97    

$$$$
jnk1_abbott_27_10.X_994
     RDKit          3D

 47 48  0  0  0  0  0  0  0  0999 V2000
   20.7861   61.2068    4.0926 C   0  0  0  0  0  0  0  0  0  0  0  0
   20.5618   61.7538    5.5042 C   0  0  0  0  0  0  0  0  0  0  0  0
   20.3019   60.6767    6.4064 O   0  0  0  0  0  0  0  0  0  0  0  0
   20.0972   61.0440    7.7539 C   0  0  0  0  0  0  0  0  0  0  0  0
   20.0814   62.3403    8.0418 N   0  0  0  0  0  0  0  0  0  0  0  0
   19.7863   62.7532    9.2611 C   0  0  0  0  0  0  0  0  0  0  0  0
   19.6591   61.8853   10.3449 C   0  0  0  0  0  0  0  0  0  0  0  0
   19.6557   60.5094   10.0727 C   0  0  0  0  0  0  0  0  0  0  0  0
   19.3973   59.6370   11.1304 N   0  0  0  0  0  0  0  0  0  0  0  0
   19.8554   60.0626    8.7413 C   0  0  0  0  0  0  0  0  0  0  0  0
   19.7530   58.6777    8.3600 C   0  0  0  0  0  0  0  0  0  0  0  0
   19.6589   57.5418    8.0573 N   0  0  0  0  0  0  0  0  0  0  0  0
   19.4744   64.0704    9.3960 N   0  0  0  0  0  0  0  0  0  0  0  0
   21.0021   62.0362    3.3859 H   0  0  0  0  0  0  0  0  0  0  0  0
   19.8815   60.6675    3.7387 H   0  0  0  0  0  0  0  0  0  0  0  0
   21.6443   60.5013    4.0827 H   0  0  0  0  0  0  0  0  0  0  0  0
   19.6965   62.4558    5.4784 H   0  0  0  0  0  0  0  0  0  0  0  0
   21.4729   62.3080    5.8262 H   0  0  0  0  0  0  0  0  0  0  0  0
   19.4525   62.2576   11.3385 H   0  0  0  0  0  0  0  0  0  0  0  0
   19.6977   58.7041   10.9328 H   0  0  0  0  0  0  0  0  0  0  0  0
   19.5907   60.0550   12.0177 H   0  0  0  0  0  0  0  0  0  0  0  0
   19.4349   64.5511    8.4991 H   0  0  0  0  0  0  0  0  0  0  0  0
   18.2536   64.3625   10.1992 C   0  0  0  0  0  0  0  0  0  0  0  0
   17.3845   63.7494    9.8722 H   0  0  0  0  0  0  0  0  0  0  0  0
   17.8021   65.8394   10.1028 C   0  0  0  0  0  0  0  0  0  0  0  0
   16.8288   65.9725   10.6211 H   0  0  0  0  0  0  0  0  0  0  0  0
   17.6380   66.0584    9.0222 H   0  0  0  0  0  0  0  0  0  0  0  0
   18.4479   64.0809   11.2534 H   0  0  0  0  0  0  0  0  0  0  0  0
   20.7199   68.7029   11.5299 C   0  0  0  0  0  0  0  0  0  0  0  0
   21.4779   69.3921   11.8736 H   0  0  0  0  0  0  0  0  0  0  0  0
   19.8127   68.1592   12.4458 C   0  0  0  0  0  0  0  0  0  0  0  0
   19.8832   68.4277   13.4900 H   0  0  0  0  0  0  0  0  0  0  0  0
   18.8531   67.2251   12.0344 C   0  0  0  0  0  0  0  0  0  0  0  0
   18.1552   66.5065   13.0168 O   0  0  0  0  0  0  0  0  0  0  0  0
   17.5492   67.3135   14.0216 C   0  0  0  0  0  0  0  0  0  0  0  0
   18.3076   67.6187   14.7735 H   0  0  0  0  0  0  0  0  0  0  0  0
   16.7666   66.7118   14.5325 H   0  0  0  0  0  0  0  0  0  0  0  0
   17.0664   68.2207   13.5970 H   0  0  0  0  0  0  0  0  0  0  0  0
   18.7813   66.8614   10.6639 C   0  0  0  0  0  0  0  0  0  0  0  0
   19.7021   67.4160    9.7567 C   0  0  0  0  0  0  0  0  0  0  0  0
   19.6307   67.1100    8.7247 H   0  0  0  0  0  0  0  0  0  0  0  0
   20.7042   68.3057   10.1872 C   0  0  0  0  0  0  0  0  0  0  0  0
   21.7317   68.7694    9.3363 O   0  0  0  0  0  0  0  0  0  0  0  0
   21.7943   68.1886    8.0350 C   0  0  0  0  0  0  0  0  0  0  0  0
   22.7307   68.5224    7.5389 H   0  0  0  0  0  0  0  0  0  0  0  0
   20.9346   68.5228    7.4144 H   0  0  0  0  0  0  0  0  0  0  0  0
   21.8105   67.0775    8.0932 H   0  0  0  0  0  0  0  0  0  0  0  0
  1  2  1  0
  1 14  1  0
  1 15  1  0
  1 16  1  0
  2  3  1  0
  2 17  1  0
  2 18  1  0
  3  4  1  0
  4  5  2  0
  4 10  1  0
  5  6  1  0
  6  7  2  0
  6 13  1  0
  7  8  1  0
  7 19  1  0
  8  9  1  0
  8 10  2  0
  9 20  1  0
  9 21  1  0
 10 11  1  0
 11 12  3  0
 13 22  1  0
 13 23  1  0
 23 24  1  0
 23 25  1  0
 23 28  1  0
 25 26  1  0
 25 27  1  0
 25 39  1  0
 29 30  1  0
 29 31  2  0
 29 42  1  0
 31 32  1  0
 31 33  1  0
 33 34  1  0
 33 39  2  0
 34 35  1  0
 35 36  1  0
 35 37  1  0
 35 38  1  0
 39 40  1  0
 40 41  1  0
 40 42  2  0
 42 43  1  0
 43 44  1  0
 44 45  1  0
 44 46  1  0
 44 47  1  0
M  END
> <intraLJ>
29.942    

> <intraEL>
-11.188   

> <intraDihe>
20.171    

> <interLJ>
0.000     

> <interEJ>
0.000     

> <gridLJ>
-7.769    

> <gridEL>
0.000     

> <totalE>
31.156    

> <LGFE>
-7.769  

> <LE>
-0.311  

> <SMILES>
CCOc1nc(NCCc2cc(OC)ccc2OC)cc(N)c1C#N

> <atom.dprop.GFE>
-0.2045 -0.2801 -0.8760 -0.1655 -1.0450 -0.0476 0.0458 -0.0685 -1.1570 -0.0700 0.0000 0.0000 -0.2920 0.0000 0.0000 0.0000 0.0000 0.0000 0.0000 0.0000 0.0000 0.0000 -0.1901 0.0000 -0.3180 0.0000 0.0000 0.0000 -0.0240 0.0000 -0.0291 0.0000 -0.2406 0.7860 0.1119 0.0000 0.0000 0.0000 -0.3228 -0.1703 0.0000 -0.3392 -2.3220 -0.5501 0.0000 0.0000 0.0000

> <atom.prop.CLASS>
PRPC PRPC DMEO GEHC IMIN GEHC BENC BENC FORN BENC NCLA NCLA FORN NCLA NCLA NCLA NCLA NCLA NCLA NCLA NCLA NCLA PRPC NCLA PRPC NCLA NCLA NCLA BENC NCLA BENC NCLA BENC DMEO PRPC NCLA NCLA NCLA BENC BENC NCLA BENC DMEO PRPC NCLA NCLA NCLA

> <cluster_id>
1

> <rmsd_to_cluster_rep>
0.00    

> <ligRMSD>
5.58    

> <ligCOMD>
0.81    

$$$$
jnk1_abbott_28_28a_483
     RDKit          3D

 36 36  0  0  0  0  0  0  0  0999 V2000
   21.2263   69.9613   13.0545 C   0  0  0  0  0  0  0  0  0  0  0  0
   20.9848   68.8797   11.9986 C   0  0  0  0  0  0  0  0  0  0  0  0
   21.6799   69.2764   10.8221 O   0  0  0  0  0  0  0  0  0  0  0  0
   21.5835   68.4408    9.6963 C   0  0  0  0  0  0  0  0  0  0  0  0
   20.8676   67.3277    9.7899 N   0  0  0  0  0  0  0  0  0  0  0  0
   20.7455   66.4963    8.7566 C   0  0  0  0  0  0  0  0  0  0  0  0
   21.3562   66.7534    7.5290 C   0  0  0  0  0  0  0  0  0  0  0  0
   22.1225   67.9201    7.4011 C   0  0  0  0  0  0  0  0  0  0  0  0
   22.7364   68.1608    6.1724 N   0  0  0  0  0  0  0  0  0  0  0  0
   22.2527   68.7920    8.5075 C   0  0  0  0  0  0  0  0  0  0  0  0
   23.0460   69.9957    8.4792 C   0  0  0  0  0  0  0  0  0  0  0  0
   23.6965   70.9794    8.4609 N   0  0  0  0  0  0  0  0  0  0  0  0
   19.9765   65.3412    9.0422 N   0  0  0  0  0  0  0  0  0  0  0  0
   19.8424   64.1920    8.3482 C   0  0  0  0  0  0  0  0  0  0  0  0
   20.4383   63.9414    7.3015 O   0  0  0  0  0  0  0  0  0  0  0  0
   18.8580   63.2121    8.9285 C   0  0  0  0  0  0  0  0  0  0  0  0
   19.2174   61.8000    8.6430 N   0  0  0  0  0  0  0  0  0  0  0  0
   18.1123   61.0974    8.0125 C   0  0  0  0  0  0  0  0  0  0  0  0
   19.6997   61.1280    9.8394 C   0  0  0  0  0  0  0  0  0  0  0  0
   20.7075   69.7048   14.0022 H   0  0  0  0  0  0  0  0  0  0  0  0
   20.8446   70.9418   12.6967 H   0  0  0  0  0  0  0  0  0  0  0  0
   22.3132   70.0631   13.2624 H   0  0  0  0  0  0  0  0  0  0  0  0
   19.8926   68.7952   11.7996 H   0  0  0  0  0  0  0  0  0  0  0  0
   21.3735   67.9033   12.3652 H   0  0  0  0  0  0  0  0  0  0  0  0
   21.2741   66.0742    6.6968 H   0  0  0  0  0  0  0  0  0  0  0  0
   23.2941   68.9880    6.1017 H   0  0  0  0  0  0  0  0  0  0  0  0
   22.5882   67.4774    5.4574 H   0  0  0  0  0  0  0  0  0  0  0  0
   19.4072   65.4616    9.8503 H   0  0  0  0  0  0  0  0  0  0  0  0
   17.8558   63.4300    8.4952 H   0  0  0  0  0  0  0  0  0  0  0  0
   18.7960   63.3636   10.0288 H   0  0  0  0  0  0  0  0  0  0  0  0
   17.7851   61.6088    7.0804 H   0  0  0  0  0  0  0  0  0  0  0  0
   17.2386   61.0345    8.7004 H   0  0  0  0  0  0  0  0  0  0  0  0
   18.4098   60.0582    7.7433 H   0  0  0  0  0  0  0  0  0  0  0  0
   20.5721   61.6548   10.2843 H   0  0  0  0  0  0  0  0  0  0  0  0
   20.0236   60.0894    9.6011 H   0  0  0  0  0  0  0  0  0  0  0  0
   18.9010   61.0687   10.6126 H   0  0  0  0  0  0  0  0  0  0  0  0
  1  2  1  0
  1 20  1  0
  1 21  1  0
  1 22  1  0
  2  3  1  0
  2 23  1  0
  2 24  1  0
  3  4  1  0
  4  5  2  0
  4 10  1  0
  5  6  1  0
  6  7  2  0
  6 13  1  0
  7  8  1  0
  7 25  1  0
  8  9  1  0
  8 10  2  0
  9 26  1  0
  9 27  1  0
 10 11  1  0
 11 12  3  0
 13 14  1  0
 13 28  1  0
 14 15  2  0
 14 16  1  0
 16 17  1  0
 16 29  1  0
 16 30  1  0
 17 18  1  0
 17 19  1  0
 18 31  1  0
 18 32  1  0
 18 33  1  0
 19 34  1  0
 19 35  1  0
 19 36  1  0
M  END
> <intraLJ>
15.400    

> <intraEL>
-14.545   

> <intraDihe>
10.508    

> <interLJ>
0.000     

> <interEJ>
0.000     

> <gridLJ>
-7.668    

> <gridEL>
0.000     

> <totalE>
3.694     

> <LGFE>
-7.668  

> <LE>
-0.404  

> <SMILES>
CCOc1nc(NC(=O)CN(C)C)cc(N)c1C#N

> <atom.dprop.GFE>
0.5345 -0.2045 -1.7740 0.0992 -1.3980 -0.1252 -0.2568 -0.1979 -1.3040 -0.1107 0.0000 0.0000 -0.0810 0.0000 -0.6960 -0.4948 -0.9710 -0.3463 -0.3413 0.0000 0.0000 0.0000 0.0000 0.0000 0.0000 0.0000 0.0000 0.0000 0.0000 0.0000 0.0000 0.0000 0.0000 0.0000 0.0000 0.0000

> <atom.prop.CLASS>
PRPC PRPC DMEO GEHC IMIN GEHC BENC BENC FORN BENC NCLA NCLA FORN NCLA FORO PRPC GENA PRPC PRPC NCLA NCLA NCLA NCLA NCLA NCLA NCLA NCLA NCLA NCLA NCLA NCLA NCLA NCLA NCLA NCLA NCLA

> <cluster_id>
1

> <rmsd_to_cluster_rep>
0.00    

> <ligRMSD>
6.66    

> <ligCOMD>
0.94    

$$$$
jnk1_abbott_29_28b.X_574
     RDKit          3D

 54 54  0  0  0  0  0  0  0  0999 V2000
   17.4333   62.1197   11.2299 C   0  0  0  0  0  0  0  0  0  0  0  0
   18.3247   63.2697   10.7549 C   0  0  0  0  0  0  0  0  0  0  0  0
   18.2255   64.3116   11.7195 O   0  0  0  0  0  0  0  0  0  0  0  0
   18.9994   65.4670   11.5055 C   0  0  0  0  0  0  0  0  0  0  0  0
   19.7698   65.5280   10.4260 N   0  0  0  0  0  0  0  0  0  0  0  0
   20.5289   66.5948   10.1764 C   0  0  0  0  0  0  0  0  0  0  0  0
   20.5463   67.6997   11.0250 C   0  0  0  0  0  0  0  0  0  0  0  0
   19.7476   67.6631   12.1769 C   0  0  0  0  0  0  0  0  0  0  0  0
   19.7811   68.7673   13.0279 N   0  0  0  0  0  0  0  0  0  0  0  0
   18.9540   66.5214   12.4383 C   0  0  0  0  0  0  0  0  0  0  0  0
   18.1276   66.3820   13.6114 C   0  0  0  0  0  0  0  0  0  0  0  0
   17.4530   66.2621   14.5713 N   0  0  0  0  0  0  0  0  0  0  0  0
   21.3311   66.4711    9.0168 N   0  0  0  0  0  0  0  0  0  0  0  0
   21.9147   67.4089    8.2406 C   0  0  0  0  0  0  0  0  0  0  0  0
   21.8483   68.6196    8.4454 O   0  0  0  0  0  0  0  0  0  0  0  0
   22.6938   66.8591    7.0776 C   0  0  0  0  0  0  0  0  0  0  0  0
   21.8913   66.4600    5.8948 N   0  0  0  0  0  0  0  0  0  0  0  0
   22.6731   66.4065    4.6644 C   0  0  0  0  0  0  0  0  0  0  0  0
   22.7039   67.8291    4.1066 C   0  0  0  0  0  0  0  0  0  0  0  0
   23.4734   67.8977    2.7854 C   0  0  0  0  0  0  0  0  0  0  0  0
   23.5519   69.3098    2.2112 C   0  0  0  0  0  0  0  0  0  0  0  0
   20.9561   65.3270    6.0214 C   0  0  0  0  0  0  0  0  0  0  0  0
   21.7018   64.0102    6.2943 C   0  0  0  0  0  0  0  0  0  0  0  0
   20.7365   62.8198    6.3116 C   0  0  0  0  0  0  0  0  0  0  0  0
   19.7789   62.8331    7.5011 C   0  0  0  0  0  0  0  0  0  0  0  0
   17.4741   61.2725   10.5132 H   0  0  0  0  0  0  0  0  0  0  0  0
   16.3786   62.4594   11.3161 H   0  0  0  0  0  0  0  0  0  0  0  0
   17.7673   61.7573   12.2259 H   0  0  0  0  0  0  0  0  0  0  0  0
   17.9714   63.6223    9.7595 H   0  0  0  0  0  0  0  0  0  0  0  0
   19.3779   62.9189   10.6724 H   0  0  0  0  0  0  0  0  0  0  0  0
   21.1708   68.5563   10.8324 H   0  0  0  0  0  0  0  0  0  0  0  0
   19.2245   68.7134   13.8571 H   0  0  0  0  0  0  0  0  0  0  0  0
   20.3883   69.5169   12.7642 H   0  0  0  0  0  0  0  0  0  0  0  0
   21.4142   65.5189    8.7396 H   0  0  0  0  0  0  0  0  0  0  0  0
   23.3298   66.0138    7.4176 H   0  0  0  0  0  0  0  0  0  0  0  0
   23.3839   67.6681    6.7418 H   0  0  0  0  0  0  0  0  0  0  0  0
   22.2116   65.7261    3.9159 H   0  0  0  0  0  0  0  0  0  0  0  0
   23.7093   66.0535    4.8590 H   0  0  0  0  0  0  0  0  0  0  0  0
   23.1945   68.5057    4.8429 H   0  0  0  0  0  0  0  0  0  0  0  0
   21.6680   68.1994    3.9370 H   0  0  0  0  0  0  0  0  0  0  0  0
   22.9783   67.2294    2.0452 H   0  0  0  0  0  0  0  0  0  0  0  0
   24.5058   67.5146    2.9497 H   0  0  0  0  0  0  0  0  0  0  0  0
   22.5318   69.7073    2.0216 H   0  0  0  0  0  0  0  0  0  0  0  0
   24.1149   69.3082    1.2535 H   0  0  0  0  0  0  0  0  0  0  0  0
   24.0679   69.9884    2.9240 H   0  0  0  0  0  0  0  0  0  0  0  0
   20.2121   65.5321    6.8183 H   0  0  0  0  0  0  0  0  0  0  0  0
   20.3817   65.2241    5.0741 H   0  0  0  0  0  0  0  0  0  0  0  0
   22.2105   64.0313    7.2811 H   0  0  0  0  0  0  0  0  0  0  0  0
   22.4787   63.8359    5.5192 H   0  0  0  0  0  0  0  0  0  0  0  0
   21.3288   61.8775    6.3280 H   0  0  0  0  0  0  0  0  0  0  0  0
   20.1406   62.8284    5.3708 H   0  0  0  0  0  0  0  0  0  0  0  0
   20.3474   62.8166    8.4556 H   0  0  0  0  0  0  0  0  0  0  0  0
   19.1121   61.9450    7.4708 H   0  0  0  0  0  0  0  0  0  0  0  0
   19.1490   63.7483    7.4807 H   0  0  0  0  0  0  0  0  0  0  0  0
  1  2  1  0
  1 26  1  0
  1 27  1  0
  1 28  1  0
  2  3  1  0
  2 29  1  0
  2 30  1  0
  3  4  1  0
  4  5  2  0
  4 10  1  0
  5  6  1  0
  6  7  2  0
  6 13  1  0
  7  8  1  0
  7 31  1  0
  8  9  1  0
  8 10  2  0
  9 32  1  0
  9 33  1  0
 10 11  1  0
 11 12  3  0
 13 14  1  0
 13 34  1  0
 14 15  2  0
 14 16  1  0
 16 17  1  0
 16 35  1  0
 16 36  1  0
 17 18  1  0
 17 22  1  0
 18 19  1  0
 18 37  1  0
 18 38  1  0
 19 20  1  0
 19 39  1  0
 19 40  1  0
 20 21  1  0
 20 41  1  0
 20 42  1  0
 21 43  1  0
 21 44  1  0
 21 45  1  0
 22 23  1  0
 22 46  1  0
 22 47  1  0
 23 24  1  0
 23 48  1  0
 23 49  1  0
 24 25  1  0
 24 50  1  0
 24 51  1  0
 25 52  1  0
 25 53  1  0
 25 54  1  0
M  END
> <intraLJ>
12.592    

> <intraEL>
-14.115   

> <intraDihe>
28.472    

> <interLJ>
0.000     

> <interEJ>
0.000     

> <gridLJ>
-6.622    

> <gridEL>
0.000     

> <totalE>
20.326    

> <LGFE>
-6.622  

> <LE>
-0.265  

> <SMILES>
CCCCN(CCCC)CC(=O)Nc1cc(N)c(C#N)c(OCC)n1

> <atom.dprop.GFE>
-0.2587 -0.0090 0.5010 0.0280 -1.0620 -0.4555 -0.3392 -0.0262 0.0500 -0.0306 0.0000 0.0000 -0.0640 0.0000 -0.6260 -0.5285 -1.4540 -0.4079 -0.4312 -0.1192 0.0270 -0.2651 -0.2028 -0.4089 -0.5395 0.0000 0.0000 0.0000 0.0000 0.0000 0.0000 0.0000 0.0000 0.0000 0.0000 0.0000 0.0000 0.0000 0.0000 0.0000 0.0000 0.0000 0.0000 0.0000 0.0000 0.0000 0.0000 0.0000 0.0000 0.0000 0.0000 0.0000 0.0000 0.0000

> <atom.prop.CLASS>
PRPC PRPC DMEO GEHC IMIN GEHC BENC BENC FORN BENC NCLA NCLA FORN NCLA FORO PRPC GENA PRPC PRPC PRPC PRPC PRPC PRPC PRPC PRPC NCLA NCLA NCLA NCLA NCLA NCLA NCLA NCLA NCLA NCLA NCLA NCLA NCLA NCLA NCLA NCLA NCLA NCLA NCLA NCLA NCLA NCLA NCLA NCLA NCLA NCLA NCLA NCLA NCLA

> <cluster_id>
1

> <rmsd_to_cluster_rep>
0.00    

> <ligRMSD>
2.07    

> <ligCOMD>
1.27    

$$$$
jnk1_abbott_30_28c_578
     RDKit          3D

 42 42  0  0  0  0  0  0  0  0999 V2000
   18.2463   62.0042    8.4492 C   0  0  0  0  0  0  0  0  0  0  0  0
   18.8316   63.4173    8.5144 C   0  0  0  0  0  0  0  0  0  0  0  0
   18.7706   63.8356    9.8730 O   0  0  0  0  0  0  0  0  0  0  0  0
   19.2718   65.1086   10.1880 C   0  0  0  0  0  0  0  0  0  0  0  0
   19.7696   65.8537    9.2098 N   0  0  0  0  0  0  0  0  0  0  0  0
   20.2610   67.0665    9.4523 C   0  0  0  0  0  0  0  0  0  0  0  0
   20.2800   67.6120   10.7376 C   0  0  0  0  0  0  0  0  0  0  0  0
   19.7653   66.8445   11.7912 C   0  0  0  0  0  0  0  0  0  0  0  0
   19.8016   67.3974   13.0707 N   0  0  0  0  0  0  0  0  0  0  0  0
   19.2506   65.5539   11.5248 C   0  0  0  0  0  0  0  0  0  0  0  0
   18.7337   64.6795   12.5489 C   0  0  0  0  0  0  0  0  0  0  0  0
   18.3126   63.9605   13.3838 N   0  0  0  0  0  0  0  0  0  0  0  0
   20.7822   67.7086    8.2999 N   0  0  0  0  0  0  0  0  0  0  0  0
   21.6806   68.7120    8.2335 C   0  0  0  0  0  0  0  0  0  0  0  0
   22.2538   69.1858    9.2123 O   0  0  0  0  0  0  0  0  0  0  0  0
   21.9161   69.2712    6.8624 C   0  0  0  0  0  0  0  0  0  0  0  0
   23.1159   68.6536    6.2414 N   0  0  0  0  0  0  0  0  0  0  0  0
   22.7508   67.4428    5.4769 C   0  0  0  0  0  0  0  0  0  0  0  0
   22.2097   67.8319    4.1014 C   0  0  0  0  0  0  0  0  0  0  0  0
   21.8898   66.6061    3.2398 C   0  0  0  0  0  0  0  0  0  0  0  0
   21.3193   66.9856    1.8756 C   0  0  0  0  0  0  0  0  0  0  0  0
   18.2686   61.6198    7.4077 H   0  0  0  0  0  0  0  0  0  0  0  0
   17.1927   62.0062    8.8028 H   0  0  0  0  0  0  0  0  0  0  0  0
   18.8309   61.3132    9.0940 H   0  0  0  0  0  0  0  0  0  0  0  0
   18.2312   64.0959    7.8673 H   0  0  0  0  0  0  0  0  0  0  0  0
   19.8873   63.4034    8.1623 H   0  0  0  0  0  0  0  0  0  0  0  0
   20.7055   68.5819   10.9378 H   0  0  0  0  0  0  0  0  0  0  0  0
   19.4418   66.8352   13.8154 H   0  0  0  0  0  0  0  0  0  0  0  0
   20.1856   68.3176   13.1486 H   0  0  0  0  0  0  0  0  0  0  0  0
   20.3331   67.3986    7.4681 H   0  0  0  0  0  0  0  0  0  0  0  0
   22.0680   70.3712    6.9325 H   0  0  0  0  0  0  0  0  0  0  0  0
   21.0247   69.0853    6.2242 H   0  0  0  0  0  0  0  0  0  0  0  0
   23.8513   68.4625    6.9212 H   0  0  0  0  0  0  0  0  0  0  0  0
   21.9788   66.8669    6.0332 H   0  0  0  0  0  0  0  0  0  0  0  0
   23.6430   66.7929    5.3394 H   0  0  0  0  0  0  0  0  0  0  0  0
   22.9607   68.4562    3.5667 H   0  0  0  0  0  0  0  0  0  0  0  0
   21.2831   68.4370    4.2231 H   0  0  0  0  0  0  0  0  0  0  0  0
   21.1561   65.9654    3.7786 H   0  0  0  0  0  0  0  0  0  0  0  0
   22.8190   66.0103    3.0954 H   0  0  0  0  0  0  0  0  0  0  0  0
   20.3811   67.5683    1.9989 H   0  0  0  0  0  0  0  0  0  0  0  0
   21.0953   66.0755    1.2797 H   0  0  0  0  0  0  0  0  0  0  0  0
   22.0481   67.6075    1.3125 H   0  0  0  0  0  0  0  0  0  0  0  0
  1  2  1  0
  1 22  1  0
  1 23  1  0
  1 24  1  0
  2  3  1  0
  2 25  1  0
  2 26  1  0
  3  4  1  0
  4  5  2  0
  4 10  1  0
  5  6  1  0
  6  7  2  0
  6 13  1  0
  7  8  1  0
  7 27  1  0
  8  9  1  0
  8 10  2  0
  9 28  1  0
  9 29  1  0
 10 11  1  0
 11 12  3  0
 13 14  1  0
 13 30  1  0
 14 15  2  0
 14 16  1  0
 16 17  1  0
 16 31  1  0
 16 32  1  0
 17 18  1  0
 17 33  1  0
 18 19  1  0
 18 34  1  0
 18 35  1  0
 19 20  1  0
 19 36  1  0
 19 37  1  0
 20 21  1  0
 20 38  1  0
 20 39  1  0
 21 40  1  0
 21 41  1  0
 21 42  1  0
M  END
> <intraLJ>
14.971    

> <intraEL>
-13.147   

> <intraDihe>
11.875    

> <interLJ>
0.000     

> <interEJ>
0.000     

> <gridLJ>
-7.901    

> <gridEL>
0.000     

> <totalE>
5.798     

> <LGFE>
-7.901  

> <LE>
-0.376  

> <SMILES>
CCCCNCC(=O)Nc1cc(N)c(C#N)c(OCC)n1

> <atom.dprop.GFE>
-0.3090 -0.5175 -0.1310 0.0047 -0.4020 -0.4116 -0.3392 -0.2406 -1.0780 -0.1528 0.0000 0.0000 -0.7360 0.0000 -0.9210 -0.3596 -0.9420 -0.5701 -0.4312 -0.2468 -0.1169 0.0000 0.0000 0.0000 0.0000 0.0000 0.0000 0.0000 0.0000 0.0000 0.0000 0.0000 0.0000 0.0000 0.0000 0.0000 0.0000 0.0000 0.0000 0.0000 0.0000 0.0000

> <atom.prop.CLASS>
PRPC PRPC DMEO GEHC IMIN GEHC BENC BENC FORN BENC NCLA NCLA FORN NCLA FORO PRPC FORN PRPC PRPC PRPC PRPC NCLA NCLA NCLA NCLA NCLA NCLA NCLA NCLA NCLA NCLA NCLA NCLA NCLA NCLA NCLA NCLA NCLA NCLA NCLA NCLA NCLA

> <cluster_id>
1

> <rmsd_to_cluster_rep>
0.00    

> <ligRMSD>
1.65    

> <ligCOMD>
0.99    

$$$$
jnk1_abbott_31_28d_153
     RDKit          3D

 46 46  0  0  0  0  0  0  0  0999 V2000
   20.6020   62.2554    8.9212 C   0  0  0  0  0  0  0  0  0  0  0  0
   19.2989   62.9504    8.5173 C   0  0  0  0  0  0  0  0  0  0  0  0
   18.7895   63.5665    9.6922 O   0  0  0  0  0  0  0  0  0  0  0  0
   19.2992   64.8264   10.0537 C   0  0  0  0  0  0  0  0  0  0  0  0
   20.2203   65.4020    9.2866 N   0  0  0  0  0  0  0  0  0  0  0  0
   20.7223   66.6011    9.5894 C   0  0  0  0  0  0  0  0  0  0  0  0
   20.3239   67.2962   10.7330 C   0  0  0  0  0  0  0  0  0  0  0  0
   19.3595   66.7097   11.5661 C   0  0  0  0  0  0  0  0  0  0  0  0
   18.9796   67.3898   12.7252 N   0  0  0  0  0  0  0  0  0  0  0  0
   18.8321   65.4434   11.2294 C   0  0  0  0  0  0  0  0  0  0  0  0
   17.8665   64.7610   12.0542 C   0  0  0  0  0  0  0  0  0  0  0  0
   17.0784   64.2159   12.7413 N   0  0  0  0  0  0  0  0  0  0  0  0
   21.7108   67.0792    8.6897 N   0  0  0  0  0  0  0  0  0  0  0  0
   22.1228   68.3477    8.4684 C   0  0  0  0  0  0  0  0  0  0  0  0
   21.7208   69.3256    9.0964 O   0  0  0  0  0  0  0  0  0  0  0  0
   23.0948   68.5225    7.3374 C   0  0  0  0  0  0  0  0  0  0  0  0
   22.4881   68.2352    6.0184 N   0  0  0  0  0  0  0  0  0  0  0  0
   22.2998   66.8099    5.6335 C   0  0  0  0  0  0  0  0  0  0  0  0
   22.4485   66.5705    4.1140 C   0  0  0  0  0  0  0  0  0  0  0  0
   23.7864   66.7480    3.6600 O   0  0  0  0  0  0  0  0  0  0  0  0
   21.3287   69.0903    5.7369 C   0  0  0  0  0  0  0  0  0  0  0  0
   21.7516   70.5601    5.6210 C   0  0  0  0  0  0  0  0  0  0  0  0
   20.6298   71.4351    5.0567 C   0  0  0  0  0  0  0  0  0  0  0  0
   21.0618   61.7471    8.0478 H   0  0  0  0  0  0  0  0  0  0  0  0
   20.4067   61.4968    9.7096 H   0  0  0  0  0  0  0  0  0  0  0  0
   21.3270   62.9968    9.3212 H   0  0  0  0  0  0  0  0  0  0  0  0
   18.5769   62.1991    8.1263 H   0  0  0  0  0  0  0  0  0  0  0  0
   19.5052   63.7143    7.7347 H   0  0  0  0  0  0  0  0  0  0  0  0
   20.7602   68.2456   10.9981 H   0  0  0  0  0  0  0  0  0  0  0  0
   18.1149   67.0596   13.1039 H   0  0  0  0  0  0  0  0  0  0  0  0
   19.1937   68.3658   12.6905 H   0  0  0  0  0  0  0  0  0  0  0  0
   22.0247   66.3600    8.0743 H   0  0  0  0  0  0  0  0  0  0  0  0
   24.0017   67.9075    7.5093 H   0  0  0  0  0  0  0  0  0  0  0  0
   23.4354   69.5830    7.3294 H   0  0  0  0  0  0  0  0  0  0  0  0
   21.2604   66.5183    5.8968 H   0  0  0  0  0  0  0  0  0  0  0  0
   22.9771   66.1442    6.2097 H   0  0  0  0  0  0  0  0  0  0  0  0
   21.7583   67.2200    3.5349 H   0  0  0  0  0  0  0  0  0  0  0  0
   22.1791   65.5116    3.9060 H   0  0  0  0  0  0  0  0  0  0  0  0
   23.8724   67.6813    3.4504 H   0  0  0  0  0  0  0  0  0  0  0  0
   20.5795   69.0057    6.5555 H   0  0  0  0  0  0  0  0  0  0  0  0
   20.8473   68.7580    4.7912 H   0  0  0  0  0  0  0  0  0  0  0  0
   22.6403   70.6668    4.9632 H   0  0  0  0  0  0  0  0  0  0  0  0
   22.0292   70.9374    6.6312 H   0  0  0  0  0  0  0  0  0  0  0  0
   20.3590   71.1010    4.0321 H   0  0  0  0  0  0  0  0  0  0  0  0
   20.9513   72.4971    5.0091 H   0  0  0  0  0  0  0  0  0  0  0  0
   19.7259   71.3673    5.6994 H   0  0  0  0  0  0  0  0  0  0  0  0
  1  2  1  0
  1 24  1  0
  1 25  1  0
  1 26  1  0
  2  3  1  0
  2 27  1  0
  2 28  1  0
  3  4  1  0
  4  5  2  0
  4 10  1  0
  5  6  1  0
  6  7  2  0
  6 13  1  0
  7  8  1  0
  7 29  1  0
  8  9  1  0
  8 10  2  0
  9 30  1  0
  9 31  1  0
 10 11  1  0
 11 12  3  0
 13 14  1  0
 13 32  1  0
 14 15  2  0
 14 16  1  0
 16 17  1  0
 16 33  1  0
 16 34  1  0
 17 18  1  0
 17 21  1  0
 18 19  1  0
 18 35  1  0
 18 36  1  0
 19 20  1  0
 19 37  1  0
 19 38  1  0
 20 39  1  0
 21 22  1  0
 21 40  1  0
 21 41  1  0
 22 23  1  0
 22 42  1  0
 22 43  1  0
 23 44  1  0
 23 45  1  0
 23 46  1  0
M  END
> <intraLJ>
17.849    

> <intraEL>
-11.582   

> <intraDihe>
30.862    

> <interLJ>
0.000     

> <interEJ>
0.000     

> <gridLJ>
-7.511    

> <gridEL>
0.000     

> <totalE>
29.617    

> <LGFE>
-7.511  

> <LE>
-0.327  

> <SMILES>
CCCN(CCO)CC(=O)Nc1cc(N)c(C#N)c(OCC)n1

> <atom.dprop.GFE>
-0.4396 -0.4948 -0.1310 -0.1122 0.0920 -0.4116 -0.2640 -0.2406 -0.3900 -0.1528 0.0000 0.0000 -0.0640 0.0000 -1.2440 -0.0776 -1.1780 -0.5221 -0.4079 -0.9490 -0.3713 0.1538 -0.3067 0.0000 0.0000 0.0000 0.0000 0.0000 0.0000 0.0000 0.0000 0.0000 0.0000 0.0000 0.0000 0.0000 0.0000 0.0000 0.0000 0.0000 0.0000 0.0000 0.0000 0.0000 0.0000 0.0000

> <atom.prop.CLASS>
PRPC PRPC DMEO GEHC IMIN GEHC BENC BENC FORN BENC NCLA NCLA FORN NCLA FORO PRPC GENA PRPC PRPC MEOO PRPC PRPC PRPC NCLA NCLA NCLA NCLA NCLA NCLA NCLA NCLA NCLA NCLA NCLA NCLA NCLA NCLA NCLA NCLA NCLA NCLA NCLA NCLA NCLA NCLA NCLA

> <cluster_id>
1

> <rmsd_to_cluster_rep>
0.00    

> <ligRMSD>
1.33    

> <ligCOMD>
0.84    

$$$$
jnk1_abbott_32_29_1124
     RDKit          3D

 43 44  0  0  0  0  0  0  0  0999 V2000
   18.2754   61.9724    8.4735 C   0  0  0  0  0  0  0  0  0  0  0  0
   18.8329   63.3967    8.5344 C   0  0  0  0  0  0  0  0  0  0  0  0
   18.7810   63.8123    9.8944 O   0  0  0  0  0  0  0  0  0  0  0  0
   19.2793   65.0897   10.2033 C   0  0  0  0  0  0  0  0  0  0  0  0
   19.7691   65.8354    9.2216 N   0  0  0  0  0  0  0  0  0  0  0  0
   20.2607   67.0506    9.4570 C   0  0  0  0  0  0  0  0  0  0  0  0
   20.2771   67.6032   10.7375 C   0  0  0  0  0  0  0  0  0  0  0  0
   19.7700   66.8370   11.7962 C   0  0  0  0  0  0  0  0  0  0  0  0
   19.8017   67.3945   13.0740 N   0  0  0  0  0  0  0  0  0  0  0  0
   19.2603   65.5429   11.5370 C   0  0  0  0  0  0  0  0  0  0  0  0
   18.7486   64.6717   12.5654 C   0  0  0  0  0  0  0  0  0  0  0  0
   18.3324   63.9545   13.4041 N   0  0  0  0  0  0  0  0  0  0  0  0
   20.7764   67.6899    8.3038 N   0  0  0  0  0  0  0  0  0  0  0  0
   21.6402   68.7209    8.1877 C   0  0  0  0  0  0  0  0  0  0  0  0
   21.8854   69.1855    6.7794 C   0  0  0  0  0  0  0  0  0  0  0  0
   22.1806   69.2857    9.1365 O   0  0  0  0  0  0  0  0  0  0  0  0
   23.1872   66.4535    3.6926 C   0  0  0  0  0  0  0  0  0  0  0  0
   23.7691   66.3762    5.1070 C   0  0  0  0  0  0  0  0  0  0  0  0
   23.6126   67.7074    5.8567 C   0  0  0  0  0  0  0  0  0  0  0  0
   22.1859   68.0590    5.8736 N   0  0  0  0  0  0  0  0  0  0  0  0
   21.6424   68.2682    4.5188 C   0  0  0  0  0  0  0  0  0  0  0  0
   21.7392   66.9419    3.7567 C   0  0  0  0  0  0  0  0  0  0  0  0
   18.2929   61.5903    7.4310 H   0  0  0  0  0  0  0  0  0  0  0  0
   17.2263   61.9528    8.8397 H   0  0  0  0  0  0  0  0  0  0  0  0
   18.8815   61.2923    9.1100 H   0  0  0  0  0  0  0  0  0  0  0  0
   18.2111   64.0642    7.8959 H   0  0  0  0  0  0  0  0  0  0  0  0
   19.8841   63.4046    8.1687 H   0  0  0  0  0  0  0  0  0  0  0  0
   20.6859   68.5805   10.9329 H   0  0  0  0  0  0  0  0  0  0  0  0
   19.4610   66.8252   13.8223 H   0  0  0  0  0  0  0  0  0  0  0  0
   20.1992   68.3089   13.1526 H   0  0  0  0  0  0  0  0  0  0  0  0
   20.3600   67.3474    7.4658 H   0  0  0  0  0  0  0  0  0  0  0  0
   22.7480   69.8891    6.7927 H   0  0  0  0  0  0  0  0  0  0  0  0
   20.9941   69.7355    6.4058 H   0  0  0  0  0  0  0  0  0  0  0  0
   23.2436   65.4636    3.1923 H   0  0  0  0  0  0  0  0  0  0  0  0
   23.7849   67.1808    3.0979 H   0  0  0  0  0  0  0  0  0  0  0  0
   24.8445   66.1004    5.0553 H   0  0  0  0  0  0  0  0  0  0  0  0
   23.2382   65.5773    5.6727 H   0  0  0  0  0  0  0  0  0  0  0  0
   24.1853   68.5072    5.3387 H   0  0  0  0  0  0  0  0  0  0  0  0
   24.0005   67.6012    6.8928 H   0  0  0  0  0  0  0  0  0  0  0  0
   22.2321   69.0537    3.9984 H   0  0  0  0  0  0  0  0  0  0  0  0
   20.5790   68.5909    4.5515 H   0  0  0  0  0  0  0  0  0  0  0  0
   21.1156   66.1759    4.2709 H   0  0  0  0  0  0  0  0  0  0  0  0
   21.3406   67.0725    2.7274 H   0  0  0  0  0  0  0  0  0  0  0  0
  1  2  1  0
  1 23  1  0
  1 24  1  0
  1 25  1  0
  2  3  1  0
  2 26  1  0
  2 27  1  0
  3  4  1  0
  4  5  2  0
  4 10  1  0
  5  6  1  0
  6  7  2  0
  6 13  1  0
  7  8  1  0
  7 28  1  0
  8  9  1  0
  8 10  2  0
  9 29  1  0
  9 30  1  0
 10 11  1  0
 11 12  3  0
 13 14  1  0
 13 31  1  0
 14 15  1  0
 14 16  2  0
 15 20  1  0
 15 32  1  0
 15 33  1  0
 17 18  1  0
 17 22  1  0
 17 34  1  0
 17 35  1  0
 18 19  1  0
 18 36  1  0
 18 37  1  0
 19 20  1  0
 19 38  1  0
 19 39  1  0
 20 21  1  0
 21 22  1  0
 21 40  1  0
 21 41  1  0
 22 42  1  0
 22 43  1  0
M  END
> <intraLJ>
14.129    

> <intraEL>
-14.519   

> <intraDihe>
28.048    

> <interLJ>
0.000     

> <interEJ>
0.000     

> <gridLJ>
-8.056    

> <gridEL>
0.000     

> <totalE>
19.602    

> <LGFE>
-8.056  

> <LE>
-0.366  

> <SMILES>
CCOc1nc(NC(=O)CN2CCCCC2)cc(N)c1C#N

> <atom.dprop.GFE>
-0.3090 -0.5175 -0.1310 0.0047 -0.4020 -0.4116 -0.3392 -0.2406 -1.0780 -0.1528 0.0000 0.0000 -0.7360 0.0000 -0.3596 -0.9210 -0.1851 -0.2950 -0.2804 -1.1780 -0.3823 -0.1412 0.0000 0.0000 0.0000 0.0000 0.0000 0.0000 0.0000 0.0000 0.0000 0.0000 0.0000 0.0000 0.0000 0.0000 0.0000 0.0000 0.0000 0.0000 0.0000 0.0000 0.0000

> <atom.prop.CLASS>
PRPC PRPC DMEO GEHC IMIN GEHC BENC BENC FORN BENC NCLA NCLA FORN NCLA PRPC FORO PRPC PRPC PRPC GENA PRPC PRPC NCLA NCLA NCLA NCLA NCLA NCLA NCLA NCLA NCLA NCLA NCLA NCLA NCLA NCLA NCLA NCLA NCLA NCLA NCLA NCLA NCLA

> <cluster_id>
1

> <rmsd_to_cluster_rep>
0.00    

> <ligRMSD>
1.26    

> <ligCOMD>
1.07    

$$$$
jnk1_abbott_33_30_840
     RDKit          3D

 41 42  0  0  0  0  0  0  0  0999 V2000
   19.0365   61.6030    7.1418 C   0  0  0  0  0  0  0  0  0  0  0  0
   19.4475   62.9916    7.6380 C   0  0  0  0  0  0  0  0  0  0  0  0
   18.9689   63.1209    8.9719 O   0  0  0  0  0  0  0  0  0  0  0  0
   19.2259   64.3288    9.6421 C   0  0  0  0  0  0  0  0  0  0  0  0
   19.8853   65.2840    8.9999 N   0  0  0  0  0  0  0  0  0  0  0  0
   20.1625   66.4456    9.5894 C   0  0  0  0  0  0  0  0  0  0  0  0
   19.7690   66.7209   10.8987 C   0  0  0  0  0  0  0  0  0  0  0  0
   19.0745   65.7286   11.6036 C   0  0  0  0  0  0  0  0  0  0  0  0
   18.6987   66.0109   12.9162 N   0  0  0  0  0  0  0  0  0  0  0  0
   18.7943   64.4935   10.9731 C   0  0  0  0  0  0  0  0  0  0  0  0
   18.1146   63.4045   11.6297 C   0  0  0  0  0  0  0  0  0  0  0  0
   17.5618   62.5103   12.1643 N   0  0  0  0  0  0  0  0  0  0  0  0
   20.9039   67.3334    8.7734 N   0  0  0  0  0  0  0  0  0  0  0  0
   21.4903   68.5123    9.0717 C   0  0  0  0  0  0  0  0  0  0  0  0
   22.1249   69.2193    7.9059 C   0  0  0  0  0  0  0  0  0  0  0  0
   21.4992   69.0184   10.1919 O   0  0  0  0  0  0  0  0  0  0  0  0
   23.4787   67.0929    4.4726 O   0  0  0  0  0  0  0  0  0  0  0  0
   23.7500   66.5781    5.7705 C   0  0  0  0  0  0  0  0  0  0  0  0
   23.7169   67.6711    6.8506 C   0  0  0  0  0  0  0  0  0  0  0  0
   22.3962   68.2955    6.7896 N   0  0  0  0  0  0  0  0  0  0  0  0
   22.1686   68.8977    5.4712 C   0  0  0  0  0  0  0  0  0  0  0  0
   22.2260   67.7622    4.4418 C   0  0  0  0  0  0  0  0  0  0  0  0
   19.3862   61.4410    6.1004 H   0  0  0  0  0  0  0  0  0  0  0  0
   17.9304   61.4971    7.1638 H   0  0  0  0  0  0  0  0  0  0  0  0
   19.4769   60.8147    7.7897 H   0  0  0  0  0  0  0  0  0  0  0  0
   18.9938   63.7677    6.9811 H   0  0  0  0  0  0  0  0  0  0  0  0
   20.5563   63.0858    7.6154 H   0  0  0  0  0  0  0  0  0  0  0  0
   20.0036   67.6548   11.3818 H   0  0  0  0  0  0  0  0  0  0  0  0
   18.2171   65.2884   13.4124 H   0  0  0  0  0  0  0  0  0  0  0  0
   18.9511   66.9119   13.2692 H   0  0  0  0  0  0  0  0  0  0  0  0
   20.9171   67.0440    7.8202 H   0  0  0  0  0  0  0  0  0  0  0  0
   23.0829   69.6685    8.2517 H   0  0  0  0  0  0  0  0  0  0  0  0
   21.4604   70.0400    7.5577 H   0  0  0  0  0  0  0  0  0  0  0  0
   24.7561   66.1059    5.7622 H   0  0  0  0  0  0  0  0  0  0  0  0
   23.0065   65.7873    6.0142 H   0  0  0  0  0  0  0  0  0  0  0  0
   24.5016   68.4326    6.6496 H   0  0  0  0  0  0  0  0  0  0  0  0
   23.8950   67.2233    7.8517 H   0  0  0  0  0  0  0  0  0  0  0  0
   22.9575   69.6514    5.2590 H   0  0  0  0  0  0  0  0  0  0  0  0
   21.1769   69.3965    5.4158 H   0  0  0  0  0  0  0  0  0  0  0  0
   21.4085   67.0322    4.6327 H   0  0  0  0  0  0  0  0  0  0  0  0
   22.0736   68.1853    3.4252 H   0  0  0  0  0  0  0  0  0  0  0  0
  1  2  1  0
  1 23  1  0
  1 24  1  0
  1 25  1  0
  2  3  1  0
  2 26  1  0
  2 27  1  0
  3  4  1  0
  4  5  2  0
  4 10  1  0
  5  6  1  0
  6  7  2  0
  6 13  1  0
  7  8  1  0
  7 28  1  0
  8  9  1  0
  8 10  2  0
  9 29  1  0
  9 30  1  0
 10 11  1  0
 11 12  3  0
 13 14  1  0
 13 31  1  0
 14 15  1  0
 14 16  2  0
 15 20  1  0
 15 32  1  0
 15 33  1  0
 17 18  1  0
 17 22  1  0
 18 19  1  0
 18 34  1  0
 18 35  1  0
 19 20  1  0
 19 36  1  0
 19 37  1  0
 20 21  1  0
 21 22  1  0
 21 38  1  0
 21 39  1  0
 22 40  1  0
 22 41  1  0
M  END
> <intraLJ>
16.488    

> <intraEL>
-13.392   

> <intraDihe>
37.088    

> <interLJ>
0.000     

> <interEJ>
0.000     

> <gridLJ>
-9.287    

> <gridEL>
0.000     

> <totalE>
30.897    

> <LGFE>
-9.287  

> <LE>
-0.422  

> <SMILES>
CCOc1nc(NC(=O)CN2CCOCC2)cc(N)c1C#N

> <atom.dprop.GFE>
-0.5268 -0.5375 -1.0410 -0.1122 -0.3510 -0.4116 -0.3228 -0.1528 0.3800 -0.1354 0.0000 0.0000 -0.7360 0.0000 -0.2687 -1.3340 -1.5700 -0.2950 -0.3843 -0.6330 -0.4239 -0.4312 0.0000 0.0000 0.0000 0.0000 0.0000 0.0000 0.0000 0.0000 0.0000 0.0000 0.0000 0.0000 0.0000 0.0000 0.0000 0.0000 0.0000 0.0000 0.0000

> <atom.prop.CLASS>
PRPC PRPC DMEO GEHC IMIN GEHC BENC BENC FORN BENC NCLA NCLA FORN NCLA PRPC FORO DMEO PRPC PRPC GENA PRPC PRPC NCLA NCLA NCLA NCLA NCLA NCLA NCLA NCLA NCLA NCLA NCLA NCLA NCLA NCLA NCLA NCLA NCLA NCLA NCLA

> <cluster_id>
1

> <rmsd_to_cluster_rep>
0.00    

> <ligRMSD>
1.37    

> <ligCOMD>
0.88    

$$$$
jnk1_abbott_34_31_down_1087
     RDKit          3D

 44 45  0  0  0  0  0  0  0  0999 V2000
   19.4499   61.4089    7.3847 C   0  0  0  0  0  0  0  0  0  0  0  0
   19.7956   62.8451    7.7860 C   0  0  0  0  0  0  0  0  0  0  0  0
   19.1848   63.0696    9.0493 O   0  0  0  0  0  0  0  0  0  0  0  0
   19.3546   64.3291    9.6509 C   0  0  0  0  0  0  0  0  0  0  0  0
   20.0707   65.2578    9.0252 N   0  0  0  0  0  0  0  0  0  0  0  0
   20.2614   66.4665    9.5585 C   0  0  0  0  0  0  0  0  0  0  0  0
   19.7081   66.8155   10.7928 C   0  0  0  0  0  0  0  0  0  0  0  0
   18.9512   65.8529   11.4807 C   0  0  0  0  0  0  0  0  0  0  0  0
   18.4300   66.1840   12.7339 N   0  0  0  0  0  0  0  0  0  0  0  0
   18.7708   64.5749   10.9071 C   0  0  0  0  0  0  0  0  0  0  0  0
   18.0365   63.5224   11.5645 C   0  0  0  0  0  0  0  0  0  0  0  0
   17.4344   62.6706   12.1145 N   0  0  0  0  0  0  0  0  0  0  0  0
   21.0805   67.3279    8.7794 N   0  0  0  0  0  0  0  0  0  0  0  0
   21.5499   68.5723    9.0395 C   0  0  0  0  0  0  0  0  0  0  0  0
   22.3082   69.2212    7.9163 C   0  0  0  0  0  0  0  0  0  0  0  0
   21.3681   69.1827   10.0907 O   0  0  0  0  0  0  0  0  0  0  0  0
   23.2227   67.1595    4.2315 C   0  0  0  0  0  0  0  0  0  0  0  0
   23.1090   66.1188    3.2724 O   0  0  0  0  0  0  0  0  0  0  0  0
   23.7178   66.6109    5.5812 C   0  0  0  0  0  0  0  0  0  0  0  0
   23.7685   67.7136    6.6503 C   0  0  0  0  0  0  0  0  0  0  0  0
   22.4354   68.3259    6.7513 N   0  0  0  0  0  0  0  0  0  0  0  0
   21.9899   68.9614    5.4957 C   0  0  0  0  0  0  0  0  0  0  0  0
   21.8744   67.8699    4.4244 C   0  0  0  0  0  0  0  0  0  0  0  0
   19.8957   61.1595    6.3989 H   0  0  0  0  0  0  0  0  0  0  0  0
   18.3479   61.2815    7.3170 H   0  0  0  0  0  0  0  0  0  0  0  0
   19.8389   60.6927    8.1403 H   0  0  0  0  0  0  0  0  0  0  0  0
   19.3951   63.5546    7.0277 H   0  0  0  0  0  0  0  0  0  0  0  0
   20.9000   62.9603    7.8609 H   0  0  0  0  0  0  0  0  0  0  0  0
   19.8698   67.7836   11.2364 H   0  0  0  0  0  0  0  0  0  0  0  0
   17.7030   65.5671   13.0362 H   0  0  0  0  0  0  0  0  0  0  0  0
   18.3918   67.1693   12.8991 H   0  0  0  0  0  0  0  0  0  0  0  0
   21.2556   66.9556    7.8721 H   0  0  0  0  0  0  0  0  0  0  0  0
   23.3215   69.4883    8.2925 H   0  0  0  0  0  0  0  0  0  0  0  0
   21.7946   70.1591    7.6103 H   0  0  0  0  0  0  0  0  0  0  0  0
   23.9646   67.8965    3.8501 H   0  0  0  0  0  0  0  0  0  0  0  0
   22.4661   65.5018    3.6292 H   0  0  0  0  0  0  0  0  0  0  0  0
   24.7341   66.1767    5.4586 H   0  0  0  0  0  0  0  0  0  0  0  0
   23.0386   65.7996    5.9263 H   0  0  0  0  0  0  0  0  0  0  0  0
   24.5120   68.4899    6.3674 H   0  0  0  0  0  0  0  0  0  0  0  0
   24.0658   67.2700    7.6254 H   0  0  0  0  0  0  0  0  0  0  0  0
   22.7278   69.7318    5.1840 H   0  0  0  0  0  0  0  0  0  0  0  0
   20.9998   69.4518    5.6212 H   0  0  0  0  0  0  0  0  0  0  0  0
   21.0975   67.1331    4.7281 H   0  0  0  0  0  0  0  0  0  0  0  0
   21.5523   68.3321    3.4657 H   0  0  0  0  0  0  0  0  0  0  0  0
  1  2  1  0
  1 24  1  0
  1 25  1  0
  1 26  1  0
  2  3  1  0
  2 27  1  0
  2 28  1  0
  3  4  1  0
  4  5  2  0
  4 10  1  0
  5  6  1  0
  6  7  2  0
  6 13  1  0
  7  8  1  0
  7 29  1  0
  8  9  1  0
  8 10  2  0
  9 30  1  0
  9 31  1  0
 10 11  1  0
 11 12  3  0
 13 14  1  0
 13 32  1  0
 14 15  1  0
 14 16  2  0
 15 21  1  0
 15 33  1  0
 15 34  1  0
 17 18  1  0
 17 19  1  0
 17 23  1  0
 17 35  1  0
 18 36  1  0
 19 20  1  0
 19 37  1  0
 19 38  1  0
 20 21  1  0
 20 39  1  0
 20 40  1  0
 21 22  1  0
 22 23  1  0
 22 41  1  0
 22 42  1  0
 23 43  1  0
 23 44  1  0
M  END
> <intraLJ>
15.733    

> <intraEL>
-19.124   

> <intraDihe>
35.622    

> <interLJ>
0.000     

> <interEJ>
0.000     

> <gridLJ>
-8.473    

> <gridEL>
0.000     

> <totalE>
23.759    

> <LGFE>
-8.473  

> <LE>
-0.368  

> <SMILES>
CCOc1nc(NC(=O)CN2CCC(O)CC2)cc(N)c1C#N

> <atom.dprop.GFE>
-0.5268 -0.5395 -1.0410 -0.1122 -0.3510 -0.4116 -0.3228 -0.1528 0.3800 -0.1354 0.0000 0.0000 -0.7360 0.0000 -0.2687 -1.3340 -0.2111 -0.5430 -0.2950 -0.3843 -0.6330 -0.4239 -0.4312 0.0000 0.0000 0.0000 0.0000 0.0000 0.0000 0.0000 0.0000 0.0000 0.0000 0.0000 0.0000 0.0000 0.0000 0.0000 0.0000 0.0000 0.0000 0.0000 0.0000 0.0000

> <atom.prop.CLASS>
PRPC PRPC DMEO GEHC IMIN GEHC BENC BENC FORN BENC NCLA NCLA FORN NCLA PRPC FORO PRPC MEOO PRPC PRPC GENA PRPC PRPC NCLA NCLA NCLA NCLA NCLA NCLA NCLA NCLA NCLA NCLA NCLA NCLA NCLA NCLA NCLA NCLA NCLA NCLA NCLA NCLA NCLA

> <cluster_id>
1

> <rmsd_to_cluster_rep>
0.00    

> <ligRMSD>
1.39    

> <ligCOMD>
0.90    

$$$$
jnk1_abbott_35_33_down_182
     RDKit          3D

 59 60  0  0  0  0  0  0  0  0999 V2000
   21.7592   60.0318    4.3236 C   0  0  0  0  0  0  0  0  0  0  0  0
   21.5124   61.0380    5.4506 C   0  0  0  0  0  0  0  0  0  0  0  0
   20.5393   60.4593    6.3099 O   0  0  0  0  0  0  0  0  0  0  0  0
   20.1439   61.1925    7.4432 C   0  0  0  0  0  0  0  0  0  0  0  0
   20.7095   62.3708    7.6850 N   0  0  0  0  0  0  0  0  0  0  0  0
   20.3770   63.0991    8.7530 C   0  0  0  0  0  0  0  0  0  0  0  0
   19.3892   62.6741    9.6446 C   0  0  0  0  0  0  0  0  0  0  0  0
   18.7745   61.4312    9.4178 C   0  0  0  0  0  0  0  0  0  0  0  0
   17.8197   60.9814   10.3330 N   0  0  0  0  0  0  0  0  0  0  0  0
   19.1608   60.6616    8.2980 C   0  0  0  0  0  0  0  0  0  0  0  0
   18.5982   59.3654    8.0097 C   0  0  0  0  0  0  0  0  0  0  0  0
   18.1311   58.3061    7.7854 N   0  0  0  0  0  0  0  0  0  0  0  0
   21.1021   64.3156    8.8813 N   0  0  0  0  0  0  0  0  0  0  0  0
   20.7413   65.5122    9.4069 C   0  0  0  0  0  0  0  0  0  0  0  0
   21.7541   66.6139    9.2573 C   0  0  0  0  0  0  0  0  0  0  0  0
   19.6664   65.7370    9.9593 O   0  0  0  0  0  0  0  0  0  0  0  0
   21.9225   69.1129    5.7349 C   0  0  0  0  0  0  0  0  0  0  0  0
   22.3428   67.6295    5.6656 C   0  0  0  0  0  0  0  0  0  0  0  0
   22.7301   67.0939    7.0540 C   0  0  0  0  0  0  0  0  0  0  0  0
   21.6063   67.3248    7.9727 N   0  0  0  0  0  0  0  0  0  0  0  0
   21.2731   68.7515    8.1441 C   0  0  0  0  0  0  0  0  0  0  0  0
   20.8099   69.2937    6.7856 C   0  0  0  0  0  0  0  0  0  0  0  0
   21.5129   69.6247    4.3840 C   0  0  0  0  0  0  0  0  0  0  0  0
   21.8215   69.0336    3.3499 O   0  0  0  0  0  0  0  0  0  0  0  0
   20.7729   70.7536    4.3868 N   0  0  0  0  0  0  0  0  0  0  0  0
   20.2636   71.3582    3.1884 C   0  0  0  0  0  0  0  0  0  0  0  0
   19.2820   72.4953    3.4968 C   0  0  0  0  0  0  0  0  0  0  0  0
   18.7371   73.1881    2.2414 C   0  0  0  0  0  0  0  0  0  0  0  0
   17.7423   74.3090    2.5506 C   0  0  0  0  0  0  0  0  0  0  0  0
   22.5098   60.4245    3.6058 H   0  0  0  0  0  0  0  0  0  0  0  0
   20.8153   59.8293    3.7729 H   0  0  0  0  0  0  0  0  0  0  0  0
   22.1350   59.0718    4.7387 H   0  0  0  0  0  0  0  0  0  0  0  0
   21.1345   61.9943    5.0245 H   0  0  0  0  0  0  0  0  0  0  0  0
   22.4608   61.2233    6.0029 H   0  0  0  0  0  0  0  0  0  0  0  0
   19.1020   63.2621   10.5000 H   0  0  0  0  0  0  0  0  0  0  0  0
   17.2497   60.2389    9.9805 H   0  0  0  0  0  0  0  0  0  0  0  0
   17.4487   61.7087   10.9101 H   0  0  0  0  0  0  0  0  0  0  0  0
   21.9977   64.2616    8.4479 H   0  0  0  0  0  0  0  0  0  0  0  0
   22.7688   66.1596    9.3162 H   0  0  0  0  0  0  0  0  0  0  0  0
   21.6491   67.3356   10.0968 H   0  0  0  0  0  0  0  0  0  0  0  0
   22.8036   69.7056    6.0699 H   0  0  0  0  0  0  0  0  0  0  0  0
   23.2097   67.5051    4.9805 H   0  0  0  0  0  0  0  0  0  0  0  0
   21.5001   67.0199    5.2680 H   0  0  0  0  0  0  0  0  0  0  0  0
   23.6318   67.6218    7.4329 H   0  0  0  0  0  0  0  0  0  0  0  0
   22.9543   66.0074    6.9814 H   0  0  0  0  0  0  0  0  0  0  0  0
   22.1688   69.3058    8.4985 H   0  0  0  0  0  0  0  0  0  0  0  0
   20.4572   68.8877    8.8871 H   0  0  0  0  0  0  0  0  0  0  0  0
   19.8901   68.7505    6.4717 H   0  0  0  0  0  0  0  0  0  0  0  0
   20.5558   70.3710    6.8927 H   0  0  0  0  0  0  0  0  0  0  0  0
   20.5266   71.2094    5.2378 H   0  0  0  0  0  0  0  0  0  0  0  0
   19.7700   70.6054    2.5322 H   0  0  0  0  0  0  0  0  0  0  0  0
   21.1217   71.7768    2.6171 H   0  0  0  0  0  0  0  0  0  0  0  0
   19.7910   73.2498    4.1366 H   0  0  0  0  0  0  0  0  0  0  0  0
   18.4266   72.0797    4.0754 H   0  0  0  0  0  0  0  0  0  0  0  0
   18.2365   72.4272    1.6013 H   0  0  0  0  0  0  0  0  0  0  0  0
   19.5902   73.6082    1.6630 H   0  0  0  0  0  0  0  0  0  0  0  0
   16.8686   73.9074    3.1072 H   0  0  0  0  0  0  0  0  0  0  0  0
   17.3782   74.7752    1.6104 H   0  0  0  0  0  0  0  0  0  0  0  0
   18.2249   75.0942    3.1710 H   0  0  0  0  0  0  0  0  0  0  0  0
  1  2  1  0
  1 30  1  0
  1 31  1  0
  1 32  1  0
  2  3  1  0
  2 33  1  0
  2 34  1  0
  3  4  1  0
  4  5  2  0
  4 10  1  0
  5  6  1  0
  6  7  2  0
  6 13  1  0
  7  8  1  0
  7 35  1  0
  8  9  1  0
  8 10  2  0
  9 36  1  0
  9 37  1  0
 10 11  1  0
 11 12  3  0
 13 14  1  0
 13 38  1  0
 14 15  1  0
 14 16  2  0
 15 20  1  0
 15 39  1  0
 15 40  1  0
 17 18  1  0
 17 22  1  0
 17 23  1  0
 17 41  1  0
 18 19  1  0
 18 42  1  0
 18 43  1  0
 19 20  1  0
 19 44  1  0
 19 45  1  0
 20 21  1  0
 21 22  1  0
 21 46  1  0
 21 47  1  0
 22 48  1  0
 22 49  1  0
 23 24  2  0
 23 25  1  0
 25 26  1  0
 25 50  1  0
 26 27  1  0
 26 51  1  0
 26 52  1  0
 27 28  1  0
 27 53  1  0
 27 54  1  0
 28 29  1  0
 28 55  1  0
 28 56  1  0
 29 57  1  0
 29 58  1  0
 29 59  1  0
M  END
> <intraLJ>
12.240    

> <intraEL>
-14.035   

> <intraDihe>
32.110    

> <interLJ>
0.000     

> <interEJ>
0.000     

> <gridLJ>
-10.000   

> <gridEL>
0.000     

> <totalE>
20.316    

> <LGFE>
-10.000 

> <LE>
-0.345  

> <SMILES>
CCCCNC(=O)C1CCN(CC(=O)Nc2cc(N)c(C#N)c(OCC)n2)CC1

> <atom.dprop.GFE>
-0.1595 -0.1748 -0.8760 -0.1655 -1.0450 -0.2148 -0.1117 -0.0760 -0.6960 -0.1570 0.0000 0.0000 -0.7470 0.0000 -0.5375 0.1410 -0.4239 -0.5701 -0.5285 -0.3090 -0.1339 -0.2105 0.0000 -0.3690 -1.0810 -0.4019 -0.3377 -0.4382 -0.3766 0.0000 0.0000 0.0000 0.0000 0.0000 0.0000 0.0000 0.0000 0.0000 0.0000 0.0000 0.0000 0.0000 0.0000 0.0000 0.0000 0.0000 0.0000 0.0000 0.0000 0.0000 0.0000 0.0000 0.0000 0.0000 0.0000 0.0000 0.0000 0.0000 0.0000

> <atom.prop.CLASS>
PRPC PRPC DMEO GEHC IMIN GEHC BENC BENC FORN BENC NCLA NCLA FORN NCLA PRPC FORO PRPC PRPC PRPC GENA PRPC PRPC NCLA FORO FORN PRPC PRPC PRPC PRPC NCLA NCLA NCLA NCLA NCLA NCLA NCLA NCLA NCLA NCLA NCLA NCLA NCLA NCLA NCLA NCLA NCLA NCLA NCLA NCLA NCLA NCLA NCLA NCLA NCLA NCLA NCLA NCLA NCLA NCLA

> <cluster_id>
1

> <rmsd_to_cluster_rep>
0.00    

> <ligRMSD>
5.34    

> <ligCOMD>
0.82    

$$$$
jnk1_abbott_36_34_down_569
     RDKit          3D

 56 57  0  0  0  0  0  0  0  0999 V2000
   19.0122   61.4064    7.0920 C   0  0  0  0  0  0  0  0  0  0  0  0
   19.3696   62.8574    7.4239 C   0  0  0  0  0  0  0  0  0  0  0  0
   18.9574   63.0834    8.7653 O   0  0  0  0  0  0  0  0  0  0  0  0
   19.2198   64.3445    9.3297 C   0  0  0  0  0  0  0  0  0  0  0  0
   19.8277   65.2712    8.5959 N   0  0  0  0  0  0  0  0  0  0  0  0
   20.1042   66.4809    9.0874 C   0  0  0  0  0  0  0  0  0  0  0  0
   19.7378   66.8393   10.3870 C   0  0  0  0  0  0  0  0  0  0  0  0
   19.0963   65.8806   11.1889 C   0  0  0  0  0  0  0  0  0  0  0  0
   18.7666   66.2218   12.5029 N   0  0  0  0  0  0  0  0  0  0  0  0
   18.8345   64.5976   10.6589 C   0  0  0  0  0  0  0  0  0  0  0  0
   18.2044   63.5506   11.4245 C   0  0  0  0  0  0  0  0  0  0  0  0
   17.6893   62.7025   12.0618 N   0  0  0  0  0  0  0  0  0  0  0  0
   20.7748   67.3432    8.1771 N   0  0  0  0  0  0  0  0  0  0  0  0
   21.4395   68.5063    8.3854 C   0  0  0  0  0  0  0  0  0  0  0  0
   21.8799   69.2286    7.1423 C   0  0  0  0  0  0  0  0  0  0  0  0
   21.6687   68.9920    9.4911 O   0  0  0  0  0  0  0  0  0  0  0  0
   23.6600   67.0081    3.8900 C   0  0  0  0  0  0  0  0  0  0  0  0
   23.7610   66.4909    5.3413 C   0  0  0  0  0  0  0  0  0  0  0  0
   23.5679   67.6317    6.3540 C   0  0  0  0  0  0  0  0  0  0  0  0
   22.2851   68.2930    6.0751 N   0  0  0  0  0  0  0  0  0  0  0  0
   22.2210   68.8975    4.7299 C   0  0  0  0  0  0  0  0  0  0  0  0
   22.3338   67.7675    3.6981 C   0  0  0  0  0  0  0  0  0  0  0  0
   23.8215   65.8905    2.9004 C   0  0  0  0  0  0  0  0  0  0  0  0
   24.7910   65.8348    2.1449 O   0  0  0  0  0  0  0  0  0  0  0  0
   22.8442   64.9586    2.9169 N   0  0  0  0  0  0  0  0  0  0  0  0
   22.7913   63.8028    2.0657 C   0  0  0  0  0  0  0  0  0  0  0  0
   22.0425   64.1394    0.7655 C   0  0  0  0  0  0  0  0  0  0  0  0
   22.1236   62.6275    2.8000 C   0  0  0  0  0  0  0  0  0  0  0  0
   19.3040   61.1602    6.0494 H   0  0  0  0  0  0  0  0  0  0  0  0
   17.9182   61.2434    7.2010 H   0  0  0  0  0  0  0  0  0  0  0  0
   19.5398   60.7116    7.7806 H   0  0  0  0  0  0  0  0  0  0  0  0
   18.8331   63.5437    6.7309 H   0  0  0  0  0  0  0  0  0  0  0  0
   20.4678   63.0071    7.3231 H   0  0  0  0  0  0  0  0  0  0  0  0
   19.9456   67.8164   10.7895 H   0  0  0  0  0  0  0  0  0  0  0  0
   18.0963   65.6058   12.9174 H   0  0  0  0  0  0  0  0  0  0  0  0
   18.7548   67.2081   12.6663 H   0  0  0  0  0  0  0  0  0  0  0  0
   20.6401   67.0604    7.2312 H   0  0  0  0  0  0  0  0  0  0  0  0
   22.7410   69.8818    7.4095 H   0  0  0  0  0  0  0  0  0  0  0  0
   21.0547   69.8770    6.7743 H   0  0  0  0  0  0  0  0  0  0  0  0
   24.4911   67.7300    3.7230 H   0  0  0  0  0  0  0  0  0  0  0  0
   24.7541   66.0229    5.5174 H   0  0  0  0  0  0  0  0  0  0  0  0
   22.9801   65.7172    5.5180 H   0  0  0  0  0  0  0  0  0  0  0  0
   24.3924   68.3715    6.2620 H   0  0  0  0  0  0  0  0  0  0  0  0
   23.5728   67.2157    7.3850 H   0  0  0  0  0  0  0  0  0  0  0  0
   23.0544   69.6219    4.6043 H   0  0  0  0  0  0  0  0  0  0  0  0
   21.2608   69.4356    4.5730 H   0  0  0  0  0  0  0  0  0  0  0  0
   21.4705   67.0751    3.8193 H   0  0  0  0  0  0  0  0  0  0  0  0
   22.2867   68.2041    2.6763 H   0  0  0  0  0  0  0  0  0  0  0  0
   22.0783   65.0399    3.5481 H   0  0  0  0  0  0  0  0  0  0  0  0
   23.8220   63.4787    1.7831 H   0  0  0  0  0  0  0  0  0  0  0  0
   21.0017   64.4546    0.9901 H   0  0  0  0  0  0  0  0  0  0  0  0
   22.0096   63.2534    0.0971 H   0  0  0  0  0  0  0  0  0  0  0  0
   22.5558   64.9675    0.2318 H   0  0  0  0  0  0  0  0  0  0  0  0
   21.0855   62.8938    3.0908 H   0  0  0  0  0  0  0  0  0  0  0  0
   22.6952   62.3752    3.7184 H   0  0  0  0  0  0  0  0  0  0  0  0
   22.0907   61.7311    2.1456 H   0  0  0  0  0  0  0  0  0  0  0  0
  1  2  1  0
  1 29  1  0
  1 30  1  0
  1 31  1  0
  2  3  1  0
  2 32  1  0
  2 33  1  0
  3  4  1  0
  4  5  2  0
  4 10  1  0
  5  6  1  0
  6  7  2  0
  6 13  1  0
  7  8  1  0
  7 34  1  0
  8  9  1  0
  8 10  2  0
  9 35  1  0
  9 36  1  0
 10 11  1  0
 11 12  3  0
 13 14  1  0
 13 37  1  0
 14 15  1  0
 14 16  2  0
 15 20  1  0
 15 38  1  0
 15 39  1  0
 17 18  1  0
 17 22  1  0
 17 23  1  0
 17 40  1  0
 18 19  1  0
 18 41  1  0
 18 42  1  0
 19 20  1  0
 19 43  1  0
 19 44  1  0
 20 21  1  0
 21 22  1  0
 21 45  1  0
 21 46  1  0
 22 47  1  0
 22 48  1  0
 23 24  2  0
 23 25  1  0
 25 26  1  0
 25 49  1  0
 26 27  1  0
 26 28  1  0
 26 50  1  0
 27 51  1  0
 27 52  1  0
 27 53  1  0
 28 54  1  0
 28 55  1  0
 28 56  1  0
M  END
> <intraLJ>
13.274    

> <intraEL>
-19.767   

> <intraDihe>
32.681    

> <interLJ>
0.000     

> <interEJ>
0.000     

> <gridLJ>
-9.662    

> <gridEL>
0.000     

> <totalE>
16.526    

> <LGFE>
-9.662  

> <LE>
-0.345  

> <SMILES>
CCOc1nc(NC(=O)CN2CCC(C(=O)NC(C)C)CC2)cc(N)c1C#N

> <atom.dprop.GFE>
-0.5268 -0.5375 -1.0410 -0.1122 -0.3510 -0.4116 -0.3228 -0.1528 0.3800 -0.1354 0.0000 0.0000 -0.7360 0.0000 -0.2687 -1.2440 -0.1851 -0.2950 -0.3843 -1.1780 -0.3213 -0.2661 0.0000 -1.0190 -0.5620 0.0320 0.0017 -0.0246 0.0000 0.0000 0.0000 0.0000 0.0000 0.0000 0.0000 0.0000 0.0000 0.0000 0.0000 0.0000 0.0000 0.0000 0.0000 0.0000 0.0000 0.0000 0.0000 0.0000 0.0000 0.0000 0.0000 0.0000 0.0000 0.0000 0.0000 0.0000

> <atom.prop.CLASS>
PRPC PRPC DMEO GEHC IMIN GEHC BENC BENC FORN BENC NCLA NCLA FORN NCLA PRPC FORO PRPC PRPC PRPC GENA PRPC PRPC NCLA FORO FORN PRPC PRPC PRPC NCLA NCLA NCLA NCLA NCLA NCLA NCLA NCLA NCLA NCLA NCLA NCLA NCLA NCLA NCLA NCLA NCLA NCLA NCLA NCLA NCLA NCLA NCLA NCLA NCLA NCLA NCLA NCLA

> <cluster_id>
1

> <rmsd_to_cluster_rep>
0.00    

> <ligRMSD>
2.03    

> <ligCOMD>
0.81    

$$$$
jnk1_abbott_37_17_521
     RDKit          3D

 39 40  0  0  0  0  0  0  0  0999 V2000
   19.6913   65.7340   10.3125 C   0  0  0  0  0  0  0  0  0  0  0  0
   18.8657   64.0331    9.9358 Br  0  0  0  0  0  0  0  0  0  0  0  0
   20.3965   66.3398    9.3619 N   0  0  0  0  0  0  0  0  0  0  0  0
   21.0101   67.5107    9.5534 C   0  0  0  0  0  0  0  0  0  0  0  0
   20.9016   68.1931   10.7634 C   0  0  0  0  0  0  0  0  0  0  0  0
   20.1728   67.5937   11.8010 C   0  0  0  0  0  0  0  0  0  0  0  0
   20.0920   68.2802   13.0154 N   0  0  0  0  0  0  0  0  0  0  0  0
   19.5577   66.3339   11.5832 C   0  0  0  0  0  0  0  0  0  0  0  0
   18.8143   65.6433   12.6039 C   0  0  0  0  0  0  0  0  0  0  0  0
   18.2044   65.0592   13.4267 N   0  0  0  0  0  0  0  0  0  0  0  0
   21.7481   67.9840    8.4357 N   0  0  0  0  0  0  0  0  0  0  0  0
   22.3212   69.1875    8.2078 C   0  0  0  0  0  0  0  0  0  0  0  0
   22.2654   70.1407    8.9822 O   0  0  0  0  0  0  0  0  0  0  0  0
   23.1208   69.2920    6.9393 C   0  0  0  0  0  0  0  0  0  0  0  0
   22.2700   69.1549    5.6868 C   0  0  0  0  0  0  0  0  0  0  0  0
   22.0292   67.8895    5.1086 C   0  0  0  0  0  0  0  0  0  0  0  0
   22.5467   66.7537    5.7681 O   0  0  0  0  0  0  0  0  0  0  0  0
   22.2414   65.4738    5.2281 C   0  0  0  0  0  0  0  0  0  0  0  0
   21.2781   67.8055    3.9182 C   0  0  0  0  0  0  0  0  0  0  0  0
   20.7725   68.9669    3.3253 C   0  0  0  0  0  0  0  0  0  0  0  0
   21.0045   70.2259    3.8890 C   0  0  0  0  0  0  0  0  0  0  0  0
   21.7607   70.3139    5.0756 C   0  0  0  0  0  0  0  0  0  0  0  0
   20.4413   71.3486    3.2496 O   0  0  0  0  0  0  0  0  0  0  0  0
   20.7095   72.6250    3.8209 C   0  0  0  0  0  0  0  0  0  0  0  0
   21.3627   69.1559   10.9138 H   0  0  0  0  0  0  0  0  0  0  0  0
   19.6030   67.8258   13.7604 H   0  0  0  0  0  0  0  0  0  0  0  0
   20.5922   69.1446   13.0732 H   0  0  0  0  0  0  0  0  0  0  0  0
   21.8917   67.2634    7.7608 H   0  0  0  0  0  0  0  0  0  0  0  0
   23.8957   68.4933    6.9257 H   0  0  0  0  0  0  0  0  0  0  0  0
   23.6483   70.2718    6.9158 H   0  0  0  0  0  0  0  0  0  0  0  0
   22.6893   64.6967    5.8840 H   0  0  0  0  0  0  0  0  0  0  0  0
   22.6738   65.3604    4.2103 H   0  0  0  0  0  0  0  0  0  0  0  0
   21.1417   65.3120    5.1959 H   0  0  0  0  0  0  0  0  0  0  0  0
   21.0712   66.8652    3.4317 H   0  0  0  0  0  0  0  0  0  0  0  0
   20.1948   68.8915    2.4147 H   0  0  0  0  0  0  0  0  0  0  0  0
   21.9581   71.2600    5.5541 H   0  0  0  0  0  0  0  0  0  0  0  0
   20.2401   73.4037    3.1821 H   0  0  0  0  0  0  0  0  0  0  0  0
   21.8047   72.8152    3.8559 H   0  0  0  0  0  0  0  0  0  0  0  0
   20.2747   72.7108    4.8401 H   0  0  0  0  0  0  0  0  0  0  0  0
  1  2  1  0
  1  3  2  0
  1  8  1  0
  3  4  1  0
  4  5  2  0
  4 11  1  0
  5  6  1  0
  5 25  1  0
  6  7  1  0
  6  8  2  0
  7 26  1  0
  7 27  1  0
  8  9  1  0
  9 10  3  0
 11 12  1  0
 11 28  1  0
 12 13  2  0
 12 14  1  0
 14 15  1  0
 14 29  1  0
 14 30  1  0
 15 16  2  0
 15 22  1  0
 16 17  1  0
 16 19  1  0
 17 18  1  0
 18 31  1  0
 18 32  1  0
 18 33  1  0
 19 20  2  0
 19 34  1  0
 20 21  1  0
 20 35  1  0
 21 22  2  0
 21 23  1  0
 22 36  1  0
 23 24  1  0
 24 37  1  0
 24 38  1  0
 24 39  1  0
M  END
> <intraLJ>
26.998    

> <intraEL>
-13.376   

> <intraDihe>
6.988     

> <interLJ>
0.000     

> <interEJ>
0.000     

> <gridLJ>
-9.265    

> <gridEL>
0.000     

> <totalE>
11.344    

> <LGFE>
-9.265  

> <LE>
-0.386  

> <SMILES>
COc1ccc(OC)c(CC(=O)Nc2cc(N)c(C#N)c(Br)n2)c1

> <atom.dprop.GFE>
-0.1538 -0.5790 -0.4670 -0.4316 -0.3228 -0.2797 -1.0780 -0.2406 0.0000 0.0000 -0.7360 0.0000 -0.2920 -0.0833 -0.1530 -0.2016 -1.8700 -0.3720 -0.1214 -0.0648 -0.0631 -0.0593 -1.3490 -0.3473 0.0000 0.0000 0.0000 0.0000 0.0000 0.0000 0.0000 0.0000 0.0000 0.0000 0.0000 0.0000 0.0000 0.0000 0.0000

> <atom.prop.CLASS>
GEHC BRBX IMIN GEHC BENC BENC FORN BENC NCLA NCLA FORN NCLA FORO PRPC BENC BENC DMEO PRPC BENC BENC BENC BENC DMEO PRPC NCLA NCLA NCLA NCLA NCLA NCLA NCLA NCLA NCLA NCLA NCLA NCLA NCLA NCLA NCLA

> <cluster_id>
1

> <rmsd_to_cluster_rep>
0.00    

> <ligRMSD>
1.14    

> <ligCOMD>
0.93    

$$$$
jnk1_abbott_38_18a_175
     RDKit          3D

 31 31  0  0  0  0  0  0  0  0999 V2000
   18.8251   64.2618    7.5839 C   0  0  0  0  0  0  0  0  0  0  0  0
   19.6011   63.6887    8.7913 C   0  0  0  0  0  0  0  0  0  0  0  0
   21.1083   63.4795    8.5134 C   0  0  0  0  0  0  0  0  0  0  0  0
   19.3151   64.3329   10.0389 O   0  0  0  0  0  0  0  0  0  0  0  0
   19.7663   65.6471   10.2872 C   0  0  0  0  0  0  0  0  0  0  0  0
   20.3008   66.3443    9.2997 N   0  0  0  0  0  0  0  0  0  0  0  0
   20.7865   67.5654    9.4739 C   0  0  0  0  0  0  0  0  0  0  0  0
   20.7293   68.2055   10.7087 C   0  0  0  0  0  0  0  0  0  0  0  0
   20.1642   67.5059   11.7870 C   0  0  0  0  0  0  0  0  0  0  0  0
   20.1345   68.1449   13.0260 N   0  0  0  0  0  0  0  0  0  0  0  0
   19.6616   66.1954   11.5835 C   0  0  0  0  0  0  0  0  0  0  0  0
   19.0767   65.4006   12.6354 C   0  0  0  0  0  0  0  0  0  0  0  0
   18.5983   64.7480   13.4937 N   0  0  0  0  0  0  0  0  0  0  0  0
   21.3394   68.1025    8.2877 N   0  0  0  0  0  0  0  0  0  0  0  0
   22.2384   69.0901    8.1447 C   0  0  0  0  0  0  0  0  0  0  0  0
   22.6918   69.7573    9.0710 O   0  0  0  0  0  0  0  0  0  0  0  0
   22.6902   69.3187    6.7437 C   0  0  0  0  0  0  0  0  0  0  0  0
   19.0361   63.6542    6.6784 H   0  0  0  0  0  0  0  0  0  0  0  0
   19.1138   65.3086    7.3664 H   0  0  0  0  0  0  0  0  0  0  0  0
   17.7330   64.2293    7.7817 H   0  0  0  0  0  0  0  0  0  0  0  0
   19.1992   62.6521    8.9106 H   0  0  0  0  0  0  0  0  0  0  0  0
   21.6228   64.4418    8.3195 H   0  0  0  0  0  0  0  0  0  0  0  0
   21.2406   62.8327    7.6202 H   0  0  0  0  0  0  0  0  0  0  0  0
   21.5934   62.9841    9.3806 H   0  0  0  0  0  0  0  0  0  0  0  0
   21.1029   69.2081   10.8426 H   0  0  0  0  0  0  0  0  0  0  0  0
   19.7551   67.6256   13.7919 H   0  0  0  0  0  0  0  0  0  0  0  0
   20.5361   69.0599   13.0659 H   0  0  0  0  0  0  0  0  0  0  0  0
   21.0527   67.5888    7.4854 H   0  0  0  0  0  0  0  0  0  0  0  0
   22.1586   68.6415    6.0401 H   0  0  0  0  0  0  0  0  0  0  0  0
   23.7820   69.1262    6.6605 H   0  0  0  0  0  0  0  0  0  0  0  0
   22.4898   70.3697    6.4430 H   0  0  0  0  0  0  0  0  0  0  0  0
  1  2  1  0
  1 18  1  0
  1 19  1  0
  1 20  1  0
  2  3  1  0
  2  4  1  0
  2 21  1  0
  3 22  1  0
  3 23  1  0
  3 24  1  0
  4  5  1  0
  5  6  2  0
  5 11  1  0
  6  7  1  0
  7  8  2  0
  7 14  1  0
  8  9  1  0
  8 25  1  0
  9 10  1  0
  9 11  2  0
 10 26  1  0
 10 27  1  0
 11 12  1  0
 12 13  3  0
 14 15  1  0
 14 28  1  0
 15 16  2  0
 15 17  1  0
 17 29  1  0
 17 30  1  0
 17 31  1  0
M  END
> <intraLJ>
15.065    

> <intraEL>
-23.047   

> <intraDihe>
5.799     

> <interLJ>
0.000     

> <interEJ>
0.000     

> <gridLJ>
-5.859    

> <gridEL>
0.000     

> <totalE>
-8.043    

> <LGFE>
-5.859  

> <LE>
-0.345  

> <SMILES>
CC(=O)Nc1cc(N)c(C#N)c(OC(C)C)n1

> <atom.dprop.GFE>
-0.5125 -0.5175 -0.3783 -0.1610 -0.1538 -0.4670 -0.4316 -0.3392 -0.2797 -1.0780 -0.1528 0.0000 0.0000 -0.7360 0.0000 -0.2920 -0.3596 0.0000 0.0000 0.0000 0.0000 0.0000 0.0000 0.0000 0.0000 0.0000 0.0000 0.0000 0.0000 0.0000 0.0000

> <atom.prop.CLASS>
PRPC PRPC PRPC DMEO GEHC IMIN GEHC BENC BENC FORN BENC NCLA NCLA FORN NCLA FORO PRPC NCLA NCLA NCLA NCLA NCLA NCLA NCLA NCLA NCLA NCLA NCLA NCLA NCLA NCLA

> <cluster_id>
1

> <rmsd_to_cluster_rep>
0.00    

> <ligRMSD>
1.25    

> <ligCOMD>
1.13    

$$$$
jnk1_abbott_39_18b_58
     RDKit          3D

 55 56  0  0  0  0  0  0  0  0999 V2000
   18.9685   64.3149    7.5635 C   0  0  0  0  0  0  0  0  0  0  0  0
   19.5579   63.7213    8.8653 C   0  0  0  0  0  0  0  0  0  0  0  0
   21.0715   63.4059    8.7806 C   0  0  0  0  0  0  0  0  0  0  0  0
   19.1696   64.4105   10.0621 O   0  0  0  0  0  0  0  0  0  0  0  0
   19.6682   65.7109   10.3242 C   0  0  0  0  0  0  0  0  0  0  0  0
   20.3710   66.3371    9.3937 N   0  0  0  0  0  0  0  0  0  0  0  0
   20.9078   67.5377    9.5733 C   0  0  0  0  0  0  0  0  0  0  0  0
   20.7223   68.2354   10.7642 C   0  0  0  0  0  0  0  0  0  0  0  0
   19.9732   67.6211   11.7857 C   0  0  0  0  0  0  0  0  0  0  0  0
   19.7792   68.3256   12.9766 N   0  0  0  0  0  0  0  0  0  0  0  0
   19.4267   66.3295   11.5694 C   0  0  0  0  0  0  0  0  0  0  0  0
   18.6556   65.6200   12.5608 C   0  0  0  0  0  0  0  0  0  0  0  0
   18.0274   65.0346   13.3696 N   0  0  0  0  0  0  0  0  0  0  0  0
   21.6483   67.9988    8.4535 N   0  0  0  0  0  0  0  0  0  0  0  0
   22.2780   69.1760    8.2598 C   0  0  0  0  0  0  0  0  0  0  0  0
   22.2642   70.1035    9.0659 O   0  0  0  0  0  0  0  0  0  0  0  0
   23.0865   69.2780    6.9961 C   0  0  0  0  0  0  0  0  0  0  0  0
   22.2537   69.0669    5.7392 C   0  0  0  0  0  0  0  0  0  0  0  0
   22.0459   67.7788    5.2066 C   0  0  0  0  0  0  0  0  0  0  0  0
   22.5766   66.6741    5.9163 O   0  0  0  0  0  0  0  0  0  0  0  0
   22.3448   65.3721    5.3910 C   0  0  0  0  0  0  0  0  0  0  0  0
   21.3121   67.6397    4.0096 C   0  0  0  0  0  0  0  0  0  0  0  0
   20.7871   68.7640    3.3394 C   0  0  0  0  0  0  0  0  0  0  0  0
   19.9141   68.5630    1.7997 S   0  0  0  0  0  0  0  0  0  0  0  0
   18.7246   69.3676    1.9162 O   0  0  0  0  0  0  0  0  0  0  0  0
   19.8353   67.1466    1.5487 O   0  0  0  0  0  0  0  0  0  0  0  0
   21.0252   69.3027    0.6040 C   0  0  0  0  0  0  0  0  0  0  0  0
   21.0165   70.0550    3.8695 C   0  0  0  0  0  0  0  0  0  0  0  0
   21.7453   70.1885    5.0683 C   0  0  0  0  0  0  0  0  0  0  0  0
   20.4923   71.1763    3.1840 O   0  0  0  0  0  0  0  0  0  0  0  0
   20.7606   72.4650    3.7252 C   0  0  0  0  0  0  0  0  0  0  0  0
   19.2027   63.6501    6.7052 H   0  0  0  0  0  0  0  0  0  0  0  0
   19.3866   65.3171    7.3453 H   0  0  0  0  0  0  0  0  0  0  0  0
   17.8650   64.4030    7.6489 H   0  0  0  0  0  0  0  0  0  0  0  0
   19.0748   62.7167    8.9507 H   0  0  0  0  0  0  0  0  0  0  0  0
   21.6695   64.3239    8.6135 H   0  0  0  0  0  0  0  0  0  0  0  0
   21.2658   62.7112    7.9362 H   0  0  0  0  0  0  0  0  0  0  0  0
   21.4148   62.9224    9.7193 H   0  0  0  0  0  0  0  0  0  0  0  0
   21.1303   69.2234   10.9055 H   0  0  0  0  0  0  0  0  0  0  0  0
   19.4810   67.7495   13.7378 H   0  0  0  0  0  0  0  0  0  0  0  0
   20.4212   69.0822   13.1003 H   0  0  0  0  0  0  0  0  0  0  0  0
   21.7622   67.2840    7.7673 H   0  0  0  0  0  0  0  0  0  0  0  0
   23.8954   68.5137    7.0138 H   0  0  0  0  0  0  0  0  0  0  0  0
   23.5719   70.2786    6.9496 H   0  0  0  0  0  0  0  0  0  0  0  0
   22.8248   64.6265    6.0607 H   0  0  0  0  0  0  0  0  0  0  0  0
   22.7925   65.2725    4.3781 H   0  0  0  0  0  0  0  0  0  0  0  0
   21.2561   65.1504    5.3480 H   0  0  0  0  0  0  0  0  0  0  0  0
   21.1344   66.6670    3.5802 H   0  0  0  0  0  0  0  0  0  0  0  0
   21.1578   70.3816    0.8301 H   0  0  0  0  0  0  0  0  0  0  0  0
   20.5911   69.1914   -0.4121 H   0  0  0  0  0  0  0  0  0  0  0  0
   22.0089   68.7890    0.6433 H   0  0  0  0  0  0  0  0  0  0  0  0
   21.9283   71.1533    5.5150 H   0  0  0  0  0  0  0  0  0  0  0  0
   20.3600   73.2316    3.0276 H   0  0  0  0  0  0  0  0  0  0  0  0
   21.8558   72.6271    3.8309 H   0  0  0  0  0  0  0  0  0  0  0  0
   20.2582   72.5989    4.7075 H   0  0  0  0  0  0  0  0  0  0  0  0
  1  2  1  0
  1 32  1  0
  1 33  1  0
  1 34  1  0
  2  3  1  0
  2  4  1  0
  2 35  1  0
  3 36  1  0
  3 37  1  0
  3 38  1  0
  4  5  1  0
  5  6  2  0
  5 11  1  0
  6  7  1  0
  7  8  2  0
  7 14  1  0
  8  9  1  0
  8 39  1  0
  9 10  1  0
  9 11  2  0
 10 40  1  0
 10 41  1  0
 11 12  1  0
 12 13  3  0
 14 15  1  0
 14 42  1  0
 15 16  2  0
 15 17  1  0
 17 18  1  0
 17 43  1  0
 17 44  1  0
 18 19  2  0
 18 29  1  0
 19 20  1  0
 19 22  1  0
 20 21  1  0
 21 45  1  0
 21 46  1  0
 21 47  1  0
 22 23  2  0
 22 48  1  0
 23 24  1  0
 23 28  1  0
 24 25  2  0
 24 26  2  0
 24 27  1  0
 27 49  1  0
 27 50  1  0
 27 51  1  0
 28 29  2  0
 28 30  1  0
 29 52  1  0
 30 31  1  0
 31 53  1  0
 31 54  1  0
 31 55  1  0
M  END
> <intraLJ>
27.757    

> <intraEL>
-22.341   

> <intraDihe>
9.409     

> <interLJ>
0.000     

> <interEJ>
0.000     

> <gridLJ>
-10.515   

> <gridEL>
0.000     

> <totalE>
4.310     

> <LGFE>
-10.515 

> <LE>
-0.339  

> <SMILES>
COc1cc(S(C)(=O)=O)c(OC)cc1CC(=O)Nc1cc(N)c(C#N)c(OC(C)C)n1

> <atom.dprop.GFE>
-0.5125 -0.5175 -0.3783 -0.1610 -0.1538 -0.4670 -0.4316 -0.3392 -0.2797 -1.0780 -0.2406 0.0000 0.0000 -0.7360 0.0000 -0.2920 -0.0833 -0.1530 -0.2016 -1.8700 -0.3720 -0.1214 -0.0648 0.0000 -0.0100 -0.3150 -0.0266 -0.0631 -0.0593 -1.2400 -0.3473 0.0000 0.0000 0.0000 0.0000 0.0000 0.0000 0.0000 0.0000 0.0000 0.0000 0.0000 0.0000 0.0000 0.0000 0.0000 0.0000 0.0000 0.0000 0.0000 0.0000 0.0000 0.0000 0.0000 0.0000

> <atom.prop.CLASS>
PRPC PRPC PRPC DMEO GEHC IMIN GEHC BENC BENC FORN BENC NCLA NCLA FORN NCLA FORO PRPC BENC BENC DMEO PRPC BENC BENC NCLA FORO FORO PRPC BENC BENC DMEO PRPC NCLA NCLA NCLA NCLA NCLA NCLA NCLA NCLA NCLA NCLA NCLA NCLA NCLA NCLA NCLA NCLA NCLA NCLA NCLA NCLA NCLA NCLA NCLA NCLA

> <cluster_id>
1

> <rmsd_to_cluster_rep>
0.00    

> <ligRMSD>
1.17    

> <ligCOMD>
1.00    

$$$$
jnk1_abbott_40_19a_1238
     RDKit          3D

 36 36  0  0  0  0  0  0  0  0999 V2000
   20.3700   63.3004    8.5535 C   0  0  0  0  0  0  0  0  0  0  0  0
   18.9702   63.8967    8.7754 C   0  0  0  0  0  0  0  0  0  0  0  0
   18.8838   64.5147   10.0576 O   0  0  0  0  0  0  0  0  0  0  0  0
   19.4782   65.7827   10.2424 C   0  0  0  0  0  0  0  0  0  0  0  0
   20.0690   66.3856    9.2168 N   0  0  0  0  0  0  0  0  0  0  0  0
   20.6733   67.5653    9.3554 C   0  0  0  0  0  0  0  0  0  0  0  0
   20.6839   68.2451   10.5781 C   0  0  0  0  0  0  0  0  0  0  0  0
   20.0640   67.6391   11.6800 C   0  0  0  0  0  0  0  0  0  0  0  0
   20.0810   68.3091   12.9053 N   0  0  0  0  0  0  0  0  0  0  0  0
   19.4450   66.3809   11.5166 C   0  0  0  0  0  0  0  0  0  0  0  0
   18.7947   65.7041   12.6073 C   0  0  0  0  0  0  0  0  0  0  0  0
   18.2711   65.1719   13.5194 N   0  0  0  0  0  0  0  0  0  0  0  0
   21.2627   68.0533    8.1581 N   0  0  0  0  0  0  0  0  0  0  0  0
   22.2126   68.9996    8.0144 C   0  0  0  0  0  0  0  0  0  0  0  0
   22.7321   69.6067    8.9473 O   0  0  0  0  0  0  0  0  0  0  0  0
   22.6325   69.2738    6.6115 C   0  0  0  0  0  0  0  0  0  0  0  0
   20.4755   62.7662    7.1884 N   0  0  0  0  0  0  0  0  0  0  0  0
   20.7078   61.3318    7.2053 C   0  0  0  0  0  0  0  0  0  0  0  0
   21.4777   63.5023    6.4371 C   0  0  0  0  0  0  0  0  0  0  0  0
   20.5643   62.4924    9.2912 H   0  0  0  0  0  0  0  0  0  0  0  0
   21.1278   64.1005    8.7076 H   0  0  0  0  0  0  0  0  0  0  0  0
   18.1576   63.1546    8.6261 H   0  0  0  0  0  0  0  0  0  0  0  0
   18.8134   64.7049    8.0257 H   0  0  0  0  0  0  0  0  0  0  0  0
   21.1365   69.2163   10.6890 H   0  0  0  0  0  0  0  0  0  0  0  0
   19.6293   67.8530   13.6726 H   0  0  0  0  0  0  0  0  0  0  0  0
   20.5476   69.1932   12.9274 H   0  0  0  0  0  0  0  0  0  0  0  0
   20.9228   67.5765    7.3537 H   0  0  0  0  0  0  0  0  0  0  0  0
   22.0659   68.6392    5.8961 H   0  0  0  0  0  0  0  0  0  0  0  0
   23.7172   69.0618    6.4906 H   0  0  0  0  0  0  0  0  0  0  0  0
   22.4496   70.3412    6.3605 H   0  0  0  0  0  0  0  0  0  0  0  0
   19.9094   60.7900    7.7565 H   0  0  0  0  0  0  0  0  0  0  0  0
   21.6836   61.0930    7.6860 H   0  0  0  0  0  0  0  0  0  0  0  0
   20.7330   60.9276    6.1676 H   0  0  0  0  0  0  0  0  0  0  0  0
   21.2469   64.5905    6.4119 H   0  0  0  0  0  0  0  0  0  0  0  0
   21.5238   63.1417    5.3844 H   0  0  0  0  0  0  0  0  0  0  0  0
   22.4875   63.3710    6.8883 H   0  0  0  0  0  0  0  0  0  0  0  0
  1  2  1  0
  1 17  1  0
  1 20  1  0
  1 21  1  0
  2  3  1  0
  2 22  1  0
  2 23  1  0
  3  4  1  0
  4  5  2  0
  4 10  1  0
  5  6  1  0
  6  7  2  0
  6 13  1  0
  7  8  1  0
  7 24  1  0
  8  9  1  0
  8 10  2  0
  9 25  1  0
  9 26  1  0
 10 11  1  0
 11 12  3  0
 13 14  1  0
 13 27  1  0
 14 15  2  0
 14 16  1  0
 16 28  1  0
 16 29  1  0
 16 30  1  0
 17 18  1  0
 17 19  1  0
 18 31  1  0
 18 32  1  0
 18 33  1  0
 19 34  1  0
 19 35  1  0
 19 36  1  0
M  END
> <intraLJ>
17.036    

> <intraEL>
-20.847   

> <intraDihe>
6.247     

> <interLJ>
0.000     

> <interEJ>
0.000     

> <gridLJ>
-7.499    

> <gridEL>
0.000     

> <totalE>
-5.064    

> <LGFE>
-7.499  

> <LE>
-0.395  

> <SMILES>
CC(=O)Nc1cc(N)c(C#N)c(OCCN(C)C)n1

> <atom.dprop.GFE>
-0.5052 -0.5175 -0.1610 -0.1538 -0.4670 -0.3047 -0.3392 -0.2797 -1.0780 -0.2406 0.0000 0.0000 -0.7360 0.0000 -0.2920 -0.3596 -1.3570 -0.5048 -0.2028 0.0000 0.0000 0.0000 0.0000 0.0000 0.0000 0.0000 0.0000 0.0000 0.0000 0.0000 0.0000 0.0000 0.0000 0.0000 0.0000 0.0000

> <atom.prop.CLASS>
PRPC PRPC DMEO GEHC IMIN GEHC BENC BENC FORN BENC NCLA NCLA FORN NCLA FORO PRPC GENA PRPC PRPC NCLA NCLA NCLA NCLA NCLA NCLA NCLA NCLA NCLA NCLA NCLA NCLA NCLA NCLA NCLA NCLA NCLA

> <cluster_id>
1

> <rmsd_to_cluster_rep>
0.00    

> <ligRMSD>
1.45    

> <ligCOMD>
0.71    

$$$$
jnk1_abbott_41_19b_172
     RDKit          3D

 30 30  0  0  0  0  0  0  0  0999 V2000
   18.3105   66.0988   11.6729 C   0  0  0  0  0  0  0  0  0  0  0  0
   19.7927   66.3726   11.9624 C   0  0  0  0  0  0  0  0  0  0  0  0
   20.3114   67.3176   11.0286 O   0  0  0  0  0  0  0  0  0  0  0  0
   20.7439   66.8467    9.7684 C   0  0  0  0  0  0  0  0  0  0  0  0
   20.6144   65.5583    9.4839 N   0  0  0  0  0  0  0  0  0  0  0  0
   21.0236   65.0496    8.3258 C   0  0  0  0  0  0  0  0  0  0  0  0
   21.6000   65.8509    7.3383 C   0  0  0  0  0  0  0  0  0  0  0  0
   21.7573   67.2198    7.6030 C   0  0  0  0  0  0  0  0  0  0  0  0
   22.3480   68.0093    6.6154 N   0  0  0  0  0  0  0  0  0  0  0  0
   21.3200   67.7426    8.8446 C   0  0  0  0  0  0  0  0  0  0  0  0
   21.4454   69.1328    9.2054 C   0  0  0  0  0  0  0  0  0  0  0  0
   21.5489   70.2692    9.5039 N   0  0  0  0  0  0  0  0  0  0  0  0
   20.7883   63.6548    8.2174 N   0  0  0  0  0  0  0  0  0  0  0  0
   21.2059   62.7922    7.2725 C   0  0  0  0  0  0  0  0  0  0  0  0
   21.9043   63.1019    6.3109 O   0  0  0  0  0  0  0  0  0  0  0  0
   20.7675   61.3816    7.4682 C   0  0  0  0  0  0  0  0  0  0  0  0
   17.7712   65.1053   12.6915 C   0  0  0  0  0  0  0  0  0  0  0  0
   18.2839   63.9560   12.6588 O   0  0  0  0  0  0  0  0  0  0  0  0
   16.8742   65.5325   13.4640 O   0  0  0  0  0  0  0  0  0  0  0  0
   18.1963   65.6742   10.6521 H   0  0  0  0  0  0  0  0  0  0  0  0
   17.7275   67.0432   11.7207 H   0  0  0  0  0  0  0  0  0  0  0  0
   20.3952   65.4372   11.9806 H   0  0  0  0  0  0  0  0  0  0  0  0
   19.8779   66.8318   12.9734 H   0  0  0  0  0  0  0  0  0  0  0  0
   21.9134   65.4503    6.3886 H   0  0  0  0  0  0  0  0  0  0  0  0
   22.4785   68.9771    6.8311 H   0  0  0  0  0  0  0  0  0  0  0  0
   22.6449   67.5376    5.7850 H   0  0  0  0  0  0  0  0  0  0  0  0
   20.2477   63.3152    8.9813 H   0  0  0  0  0  0  0  0  0  0  0  0
   20.1465   61.2832    8.3852 H   0  0  0  0  0  0  0  0  0  0  0  0
   21.6533   60.7174    7.5680 H   0  0  0  0  0  0  0  0  0  0  0  0
   20.1664   61.0444    6.5961 H   0  0  0  0  0  0  0  0  0  0  0  0
  1  2  1  0
  1 17  1  0
  1 20  1  0
  1 21  1  0
  2  3  1  0
  2 22  1  0
  2 23  1  0
  3  4  1  0
  4  5  2  0
  4 10  1  0
  5  6  1  0
  6  7  2  0
  6 13  1  0
  7  8  1  0
  7 24  1  0
  8  9  1  0
  8 10  2  0
  9 25  1  0
  9 26  1  0
 10 11  1  0
 11 12  3  0
 13 14  1  0
 13 27  1  0
 14 15  2  0
 14 16  1  0
 16 28  1  0
 16 29  1  0
 16 30  1  0
 17 18  2  0
 17 19  1  0
M  CHG  1  19  -1
M  END
> <intraLJ>
15.708    

> <intraEL>
-25.574   

> <intraDihe>
4.422     

> <interLJ>
0.000     

> <interEJ>
0.000     

> <gridLJ>
-6.696    

> <gridEL>
0.000     

> <totalE>
-12.140   

> <LGFE>
-6.696  

> <LE>
-0.352  

> <SMILES>
CC(=O)Nc1cc(N)c(C#N)c(OCCC(=O)[O-])n1

> <atom.dprop.GFE>
-0.2964 -0.6101 -1.4250 -0.4116 0.0920 0.0696 -0.2129 -0.2568 -1.3040 -0.3201 0.0000 0.0000 -0.7470 0.0000 -0.5070 -0.5048 -0.2620 0.0000 0.0000 0.0000 0.0000 0.0000 0.0000 0.0000 0.0000 0.0000 0.0000 0.0000 0.0000 0.0000

> <atom.prop.CLASS>
PRPC PRPC DMEO GEHC IMIN GEHC BENC BENC FORN BENC NCLA NCLA FORN NCLA FORO PRPC ACEC NCLA NCLA NCLA NCLA NCLA NCLA NCLA NCLA NCLA NCLA NCLA NCLA NCLA

> <cluster_id>
1

> <rmsd_to_cluster_rep>
0.00    

> <ligRMSD>
5.79    

> <ligCOMD>
0.78    

$$$$
jnk1_abbott_42_19c_13
     RDKit          3D

 33 34  0  0  1  0  0  0  0  0999 V2000
   19.0951   64.4546   10.0756 O   0  0  0  0  0  0  0  0  0  0  0  0
   19.6629   65.7317   10.2769 C   0  0  0  0  0  0  0  0  0  0  0  0
   20.2434   66.3497    9.2561 N   0  0  0  0  0  0  0  0  0  0  0  0
   20.7967   67.5542    9.3907 C   0  0  0  0  0  0  0  0  0  0  0  0
   20.7698   68.2386   10.6084 C   0  0  0  0  0  0  0  0  0  0  0  0
   20.1611   67.6172   11.7082 C   0  0  0  0  0  0  0  0  0  0  0  0
   20.1545   68.3047   12.9227 N   0  0  0  0  0  0  0  0  0  0  0  0
   19.5874   66.3335   11.5500 C   0  0  0  0  0  0  0  0  0  0  0  0
   18.9456   65.6174   12.6245 C   0  0  0  0  0  0  0  0  0  0  0  0
   18.4223   65.0268   13.5012 N   0  0  0  0  0  0  0  0  0  0  0  0
   21.3880   68.0420    8.1941 N   0  0  0  0  0  0  0  0  0  0  0  0
   22.2141   69.0924    8.0135 C   0  0  0  0  0  0  0  0  0  0  0  0
   22.6066   69.8319    8.9119 O   0  0  0  0  0  0  0  0  0  0  0  0
   22.6514   69.3202    6.6075 C   0  0  0  0  0  0  0  0  0  0  0  0
   20.2728   62.0015    7.8587 O   0  0  0  0  0  0  0  0  0  0  0  0
   20.5220   63.0968    8.7354 C   0  0  0  0  0  0  0  0  0  0  0  0
   19.1916   63.8523    8.7815 C   0  0  1  0  0  0  0  0  0  0  0  0
   18.1611   62.7209    8.6371 C   0  0  0  0  0  0  0  0  0  0  0  0
   18.9674   61.5070    8.1513 C   0  0  0  0  0  0  0  0  0  0  0  0
   21.2001   69.2187   10.7259 H   0  0  0  0  0  0  0  0  0  0  0  0
   19.7480   67.8324   13.7050 H   0  0  0  0  0  0  0  0  0  0  0  0
   20.6155   69.1921   12.9361 H   0  0  0  0  0  0  0  0  0  0  0  0
   21.1328   67.4880    7.4079 H   0  0  0  0  0  0  0  0  0  0  0  0
   22.2070   68.5630    5.9257 H   0  0  0  0  0  0  0  0  0  0  0  0
   23.7588   69.2532    6.5374 H   0  0  0  0  0  0  0  0  0  0  0  0
   22.3349   70.3307    6.2690 H   0  0  0  0  0  0  0  0  0  0  0  0
   20.8108   62.6829    9.7134 H   0  0  0  0  0  0  0  0  0  0  0  0
   21.3597   63.6861    8.3403 H   0  0  0  0  0  0  0  0  0  0  0  0
   19.1395   64.5767    7.9533 H   0  0  0  0  0  0  0  0  0  0  0  0
   17.6569   62.4961    9.5885 H   0  0  0  0  0  0  0  0  0  0  0  0
   17.3738   62.9962    7.9209 H   0  0  0  0  0  0  0  0  0  0  0  0
   18.5582   61.0383    7.2461 H   0  0  0  0  0  0  0  0  0  0  0  0
   19.0696   60.7368    8.9295 H   0  0  0  0  0  0  0  0  0  0  0  0
  1  2  1  0
  1 17  1  0
  2  3  2  0
  2  8  1  0
  3  4  1  0
  4  5  2  0
  4 11  1  0
  5  6  1  0
  5 20  1  0
  6  7  1  0
  6  8  2  0
  7 21  1  0
  7 22  1  0
  8  9  1  0
  9 10  3  0
 11 12  1  0
 11 23  1  0
 12 13  2  0
 12 14  1  0
 14 24  1  0
 14 25  1  0
 14 26  1  0
 15 16  1  0
 15 19  1  0
 16 17  1  0
 16 27  1  0
 16 28  1  0
 17 18  1  0
 17 29  1  6
 18 19  1  0
 18 30  1  0
 18 31  1  0
 19 32  1  0
 19 33  1  0
M  END
> <intraLJ>
14.627    

> <intraEL>
-22.547   

> <intraDihe>
15.255    

> <interLJ>
0.000     

> <interEJ>
0.000     

> <gridLJ>
-7.881    

> <gridEL>
0.000     

> <totalE>
-0.547    

> <LGFE>
-7.881  

> <LE>
-0.415  

> <SMILES>
CC(=O)Nc1cc(N)c(C#N)c(O[C@@H]2CCOC2)n1

> <atom.dprop.GFE>
-0.1610 -0.1538 -0.4670 -0.4316 -0.3392 -0.2797 -1.0780 -0.2406 0.0000 0.0000 -0.7360 0.0000 -0.2920 -0.3596 -1.6060 -0.5052 -0.5175 -0.2511 -0.4622 0.0000 0.0000 0.0000 0.0000 0.0000 0.0000 0.0000 0.0000 0.0000 0.0000 0.0000 0.0000 0.0000 0.0000

> <atom.prop.CLASS>
DMEO GEHC IMIN GEHC BENC BENC FORN BENC NCLA NCLA FORN NCLA FORO PRPC DMEO PRPC PRPC PRPC PRPC NCLA NCLA NCLA NCLA NCLA NCLA NCLA NCLA NCLA NCLA NCLA NCLA NCLA NCLA

> <cluster_id>
1

> <rmsd_to_cluster_rep>
0.00    

> <ligRMSD>
1.36    

> <ligCOMD>
0.96    

$$$$
jnk1_abbott_43_19d_387
     RDKit          3D

 34 34  0  0  0  0  0  0  0  0999 V2000
   18.8087   64.1382   10.0322 O   0  0  0  0  0  0  0  0  0  0  0  0
   18.9099   63.5446    8.7454 C   0  0  0  0  0  0  0  0  0  0  0  0
   20.2354   62.7733    8.7803 C   0  0  0  0  0  0  0  0  0  0  0  0
   20.5865   62.0630    7.4719 C   0  0  0  0  0  0  0  0  0  0  0  0
   19.5788   60.9711    7.1079 C   0  0  0  0  0  0  0  0  0  0  0  0
   19.4357   65.3670   10.2733 C   0  0  0  0  0  0  0  0  0  0  0  0
   20.0691   65.9700    9.2771 N   0  0  0  0  0  0  0  0  0  0  0  0
   20.6923   67.1327    9.4646 C   0  0  0  0  0  0  0  0  0  0  0  0
   20.6904   67.7790   10.7041 C   0  0  0  0  0  0  0  0  0  0  0  0
   20.0296   67.1613   11.7746 C   0  0  0  0  0  0  0  0  0  0  0  0
   20.0515   67.8080   13.0103 N   0  0  0  0  0  0  0  0  0  0  0  0
   19.3799   65.9232   11.5670 C   0  0  0  0  0  0  0  0  0  0  0  0
   18.6813   65.2110   12.6095 C   0  0  0  0  0  0  0  0  0  0  0  0
   18.1111   64.6250   13.4598 N   0  0  0  0  0  0  0  0  0  0  0  0
   21.3266   67.6239    8.2930 N   0  0  0  0  0  0  0  0  0  0  0  0
   22.2179   68.6258    8.1605 C   0  0  0  0  0  0  0  0  0  0  0  0
   22.6455   69.3029    9.0913 O   0  0  0  0  0  0  0  0  0  0  0  0
   22.6849   68.8784    6.7683 C   0  0  0  0  0  0  0  0  0  0  0  0
   18.9395   64.3212    7.9496 H   0  0  0  0  0  0  0  0  0  0  0  0
   18.0623   62.8470    8.5670 H   0  0  0  0  0  0  0  0  0  0  0  0
   20.1881   62.0132    9.5933 H   0  0  0  0  0  0  0  0  0  0  0  0
   21.0569   63.4826    9.0308 H   0  0  0  0  0  0  0  0  0  0  0  0
   21.5985   61.6095    7.5663 H   0  0  0  0  0  0  0  0  0  0  0  0
   20.6247   62.8137    6.6511 H   0  0  0  0  0  0  0  0  0  0  0  0
   19.5384   60.2007    7.9076 H   0  0  0  0  0  0  0  0  0  0  0  0
   19.8673   60.4777    6.1556 H   0  0  0  0  0  0  0  0  0  0  0  0
   18.5637   61.4067    6.9875 H   0  0  0  0  0  0  0  0  0  0  0  0
   21.1755   68.7279   10.8584 H   0  0  0  0  0  0  0  0  0  0  0  0
   19.5986   67.3423   13.7707 H   0  0  0  0  0  0  0  0  0  0  0  0
   20.5589   68.6687   13.0547 H   0  0  0  0  0  0  0  0  0  0  0  0
   21.0486   67.1136    7.4853 H   0  0  0  0  0  0  0  0  0  0  0  0
   22.2004   68.1781    6.0537 H   0  0  0  0  0  0  0  0  0  0  0  0
   23.7864   68.7424    6.7054 H   0  0  0  0  0  0  0  0  0  0  0  0
   22.4379   69.9194    6.4664 H   0  0  0  0  0  0  0  0  0  0  0  0
  1  2  1  0
  1  6  1  0
  2  3  1  0
  2 19  1  0
  2 20  1  0
  3  4  1  0
  3 21  1  0
  3 22  1  0
  4  5  1  0
  4 23  1  0
  4 24  1  0
  5 25  1  0
  5 26  1  0
  5 27  1  0
  6  7  2  0
  6 12  1  0
  7  8  1  0
  8  9  2  0
  8 15  1  0
  9 10  1  0
  9 28  1  0
 10 11  1  0
 10 12  2  0
 11 29  1  0
 11 30  1  0
 12 13  1  0
 13 14  3  0
 15 16  1  0
 15 31  1  0
 16 17  2  0
 16 18  1  0
 18 32  1  0
 18 33  1  0
 18 34  1  0
M  END
> <intraLJ>
16.092    

> <intraEL>
-21.422   

> <intraDihe>
5.988     

> <interLJ>
0.000     

> <interEJ>
0.000     

> <gridLJ>
-6.413    

> <gridEL>
0.000     

> <totalE>
-5.755    

> <LGFE>
-6.413  

> <LE>
-0.356  

> <SMILES>
CCCCOc1nc(NC(C)=O)cc(N)c1C#N

> <atom.dprop.GFE>
-0.1310 -0.5175 -0.5052 -0.5048 -0.4845 -0.1538 0.0920 -0.4116 -0.3392 -0.2096 -1.0780 -0.1528 0.0000 0.0000 -0.7360 0.0000 -0.9210 -0.3596 0.0000 0.0000 0.0000 0.0000 0.0000 0.0000 0.0000 0.0000 0.0000 0.0000 0.0000 0.0000 0.0000 0.0000 0.0000 0.0000

> <atom.prop.CLASS>
DMEO PRPC PRPC PRPC PRPC GEHC IMIN GEHC BENC BENC FORN BENC NCLA NCLA FORN NCLA FORO PRPC NCLA NCLA NCLA NCLA NCLA NCLA NCLA NCLA NCLA NCLA NCLA NCLA NCLA NCLA NCLA NCLA

> <cluster_id>
1

> <rmsd_to_cluster_rep>
0.00    

> <ligRMSD>
1.25    

> <ligCOMD>
1.12    

$$$$
jnk1_abbott_44_19e_1043
     RDKit          3D

 25 25  0  0  0  0  0  0  0  0999 V2000
   18.9487   64.1591   10.0466 O   0  0  0  0  0  0  0  0  0  0  0  0
   19.1113   63.5928    8.7495 C   0  0  0  0  0  0  0  0  0  0  0  0
   19.4914   65.4431   10.2694 C   0  0  0  0  0  0  0  0  0  0  0  0
   20.1282   66.0522    9.2762 N   0  0  0  0  0  0  0  0  0  0  0  0
   20.6722   67.2588    9.4346 C   0  0  0  0  0  0  0  0  0  0  0  0
   20.5808   67.9499   10.6458 C   0  0  0  0  0  0  0  0  0  0  0  0
   19.9172   67.3335   11.7159 C   0  0  0  0  0  0  0  0  0  0  0  0
   19.8469   68.0269   12.9250 N   0  0  0  0  0  0  0  0  0  0  0  0
   19.3530   66.0487   11.5349 C   0  0  0  0  0  0  0  0  0  0  0  0
   18.6586   65.3361   12.5784 C   0  0  0  0  0  0  0  0  0  0  0  0
   18.0918   64.7484   13.4296 N   0  0  0  0  0  0  0  0  0  0  0  0
   21.3225   67.7466    8.2686 N   0  0  0  0  0  0  0  0  0  0  0  0
   22.2737   68.6959    8.1530 C   0  0  0  0  0  0  0  0  0  0  0  0
   22.7554   69.3179    9.0960 O   0  0  0  0  0  0  0  0  0  0  0  0
   22.7387   68.9613    6.7625 C   0  0  0  0  0  0  0  0  0  0  0  0
   18.6334   62.5892    8.7420 H   0  0  0  0  0  0  0  0  0  0  0  0
   20.1884   63.4687    8.5029 H   0  0  0  0  0  0  0  0  0  0  0  0
   18.6163   64.2213    7.9774 H   0  0  0  0  0  0  0  0  0  0  0  0
   21.0000   68.9328   10.7790 H   0  0  0  0  0  0  0  0  0  0  0  0
   19.4014   67.5576   13.6876 H   0  0  0  0  0  0  0  0  0  0  0  0
   20.3065   68.9146   12.9580 H   0  0  0  0  0  0  0  0  0  0  0  0
   21.0041   67.2795    7.4498 H   0  0  0  0  0  0  0  0  0  0  0  0
   22.2030   68.3143    6.0344 H   0  0  0  0  0  0  0  0  0  0  0  0
   23.8289   68.7595    6.6803 H   0  0  0  0  0  0  0  0  0  0  0  0
   22.5534   70.0243    6.4950 H   0  0  0  0  0  0  0  0  0  0  0  0
  1  2  1  0
  1  3  1  0
  2 16  1  0
  2 17  1  0
  2 18  1  0
  3  4  2  0
  3  9  1  0
  4  5  1  0
  5  6  2  0
  5 12  1  0
  6  7  1  0
  6 19  1  0
  7  8  1  0
  7  9  2  0
  8 20  1  0
  8 21  1  0
  9 10  1  0
 10 11  3  0
 12 13  1  0
 12 22  1  0
 13 14  2  0
 13 15  1  0
 15 23  1  0
 15 24  1  0
 15 25  1  0
M  END
> <intraLJ>
14.585    

> <intraEL>
-20.681   

> <intraDihe>
4.436     

> <interLJ>
0.000     

> <interEJ>
0.000     

> <gridLJ>
-4.988    

> <gridEL>
0.000     

> <totalE>
-6.649    

> <LGFE>
-4.988  

> <LE>
-0.333  

> <SMILES>
COc1nc(NC(C)=O)cc(N)c1C#N

> <atom.dprop.GFE>
-0.1310 -0.5175 -0.1538 0.0920 -0.4116 -0.3392 -0.2797 -1.0780 -0.1528 0.0000 0.0000 -0.7360 0.0000 -0.9210 -0.3596 0.0000 0.0000 0.0000 0.0000 0.0000 0.0000 0.0000 0.0000 0.0000 0.0000

> <atom.prop.CLASS>
DMEO PRPC GEHC IMIN GEHC BENC BENC FORN BENC NCLA NCLA FORN NCLA FORO PRPC NCLA NCLA NCLA NCLA NCLA NCLA NCLA NCLA NCLA NCLA

> <cluster_id>
1

> <rmsd_to_cluster_rep>
0.00    

> <ligRMSD>
1.06    

> <ligCOMD>
0.96    

$$$$
jnk1_abbott_45_20a_767
     RDKit          3D

 47 48  0  0  0  0  0  0  0  0999 V2000
   19.7857   61.5882    7.8112 O   0  0  0  0  0  0  0  0  0  0  0  0
   19.3231   62.3366    8.9277 C   0  0  0  0  0  0  0  0  0  0  0  0
   19.7736   63.8042    8.8435 C   0  0  0  0  0  0  0  0  0  0  0  0
   19.3500   64.4549   10.0398 O   0  0  0  0  0  0  0  0  0  0  0  0
   19.8422   65.7548   10.2676 C   0  0  0  0  0  0  0  0  0  0  0  0
   20.4812   66.3708    9.2812 N   0  0  0  0  0  0  0  0  0  0  0  0
   21.0209   67.5780    9.4437 C   0  0  0  0  0  0  0  0  0  0  0  0
   20.9187   68.2652   10.6539 C   0  0  0  0  0  0  0  0  0  0  0  0
   20.2517   67.6398   11.7220 C   0  0  0  0  0  0  0  0  0  0  0  0
   20.1573   68.3257   12.9351 N   0  0  0  0  0  0  0  0  0  0  0  0
   19.6889   66.3543   11.5328 C   0  0  0  0  0  0  0  0  0  0  0  0
   19.0082   65.6219   12.5725 C   0  0  0  0  0  0  0  0  0  0  0  0
   18.4550   65.0153   13.4194 N   0  0  0  0  0  0  0  0  0  0  0  0
   21.6875   68.0759    8.2916 N   0  0  0  0  0  0  0  0  0  0  0  0
   22.4911   69.1536    8.1455 C   0  0  0  0  0  0  0  0  0  0  0  0
   22.7682   69.9356    9.0522 O   0  0  0  0  0  0  0  0  0  0  0  0
   23.1090   69.3249    6.7852 C   0  0  0  0  0  0  0  0  0  0  0  0
   22.1334   69.0323    5.6567 C   0  0  0  0  0  0  0  0  0  0  0  0
   21.9598   67.7174    5.1674 C   0  0  0  0  0  0  0  0  0  0  0  0
   22.6881   66.6736    5.7841 O   0  0  0  0  0  0  0  0  0  0  0  0
   22.4172   65.3414    5.3620 C   0  0  0  0  0  0  0  0  0  0  0  0
   21.0614   67.4921    4.1048 C   0  0  0  0  0  0  0  0  0  0  0  0
   20.3535   68.5590    3.5438 C   0  0  0  0  0  0  0  0  0  0  0  0
   20.5255   69.8658    4.0102 C   0  0  0  0  0  0  0  0  0  0  0  0
   21.4221   70.0974    5.0741 C   0  0  0  0  0  0  0  0  0  0  0  0
   19.7713   70.8888    3.3986 O   0  0  0  0  0  0  0  0  0  0  0  0
   20.0014   72.2196    3.8493 C   0  0  0  0  0  0  0  0  0  0  0  0
   19.4721   60.6894    7.9396 H   0  0  0  0  0  0  0  0  0  0  0  0
   19.7322   61.8743    9.8526 H   0  0  0  0  0  0  0  0  0  0  0  0
   18.2134   62.2844    8.9660 H   0  0  0  0  0  0  0  0  0  0  0  0
   19.3201   64.2934    7.9532 H   0  0  0  0  0  0  0  0  0  0  0  0
   20.8844   63.8375    8.7606 H   0  0  0  0  0  0  0  0  0  0  0  0
   21.3323   69.2527   10.7782 H   0  0  0  0  0  0  0  0  0  0  0  0
   19.9223   67.7377   13.7092 H   0  0  0  0  0  0  0  0  0  0  0  0
   20.8099   69.0790   13.0174 H   0  0  0  0  0  0  0  0  0  0  0  0
   21.5654   67.4729    7.5063 H   0  0  0  0  0  0  0  0  0  0  0  0
   23.9784   68.6378    6.6843 H   0  0  0  0  0  0  0  0  0  0  0  0
   23.4877   70.3663    6.6803 H   0  0  0  0  0  0  0  0  0  0  0  0
   23.0221   64.6422    5.9785 H   0  0  0  0  0  0  0  0  0  0  0  0
   22.7012   65.2001    4.2965 H   0  0  0  0  0  0  0  0  0  0  0  0
   21.3430   65.0921    5.5061 H   0  0  0  0  0  0  0  0  0  0  0  0
   20.8915   66.5109    3.6899 H   0  0  0  0  0  0  0  0  0  0  0  0
   19.6675   68.3724    2.7295 H   0  0  0  0  0  0  0  0  0  0  0  0
   21.5771   71.0845    5.4799 H   0  0  0  0  0  0  0  0  0  0  0  0
   19.3942   72.9140    3.2298 H   0  0  0  0  0  0  0  0  0  0  0  0
   21.0730   72.4936    3.7324 H   0  0  0  0  0  0  0  0  0  0  0  0
   19.6905   72.3429    4.9093 H   0  0  0  0  0  0  0  0  0  0  0  0
  1  2  1  0
  1 28  1  0
  2  3  1  0
  2 29  1  0
  2 30  1  0
  3  4  1  0
  3 31  1  0
  3 32  1  0
  4  5  1  0
  5  6  2  0
  5 11  1  0
  6  7  1  0
  7  8  2  0
  7 14  1  0
  8  9  1  0
  8 33  1  0
  9 10  1  0
  9 11  2  0
 10 34  1  0
 10 35  1  0
 11 12  1  0
 12 13  3  0
 14 15  1  0
 14 36  1  0
 15 16  2  0
 15 17  1  0
 17 18  1  0
 17 37  1  0
 17 38  1  0
 18 19  2  0
 18 25  1  0
 19 20  1  0
 19 22  1  0
 20 21  1  0
 21 39  1  0
 21 40  1  0
 21 41  1  0
 22 23  2  0
 22 42  1  0
 23 24  1  0
 23 43  1  0
 24 25  2  0
 24 26  1  0
 25 44  1  0
 26 27  1  0
 27 45  1  0
 27 46  1  0
 27 47  1  0
M  END
> <intraLJ>
28.191    

> <intraEL>
-18.573   

> <intraDihe>
11.303    

> <interLJ>
0.000     

> <interEJ>
0.000     

> <gridLJ>
-10.488   

> <gridEL>
0.000     

> <totalE>
10.434    

> <LGFE>
-10.488 

> <LE>
-0.388  

> <SMILES>
COc1ccc(OC)c(CC(=O)Nc2cc(N)c(C#N)c(OCCO)n2)c1

> <atom.dprop.GFE>
-0.7670 -0.4948 -0.5365 -0.1610 -0.0589 -0.4670 -0.4316 -0.3228 -0.2797 -1.0780 -0.2406 0.0000 0.0000 -0.7360 0.0000 -0.2920 -0.0833 -0.1530 -0.2016 -1.8700 -0.3720 -0.1331 -0.0262 -0.0815 -0.0593 -1.2400 -0.4019 0.0000 0.0000 0.0000 0.0000 0.0000 0.0000 0.0000 0.0000 0.0000 0.0000 0.0000 0.0000 0.0000 0.0000 0.0000 0.0000 0.0000 0.0000 0.0000 0.0000

> <atom.prop.CLASS>
MEOO PRPC PRPC DMEO GEHC IMIN GEHC BENC BENC FORN BENC NCLA NCLA FORN NCLA FORO PRPC BENC BENC DMEO PRPC BENC BENC BENC BENC DMEO PRPC NCLA NCLA NCLA NCLA NCLA NCLA NCLA NCLA NCLA NCLA NCLA NCLA NCLA NCLA NCLA NCLA NCLA NCLA NCLA NCLA

> <cluster_id>
1

> <rmsd_to_cluster_rep>
0.00    

> <ligRMSD>
1.34    

> <ligCOMD>
1.03    

$$$$
jnk1_abbott_46_20b_1132
     RDKit          3D

 50 51  0  0  0  0  0  0  0  0999 V2000
   21.7548   61.9757    7.2712 C   0  0  0  0  0  0  0  0  0  0  0  0
   20.5407   62.7105    7.3164 O   0  0  0  0  0  0  0  0  0  0  0  0
   20.3757   63.3946    8.5510 C   0  0  0  0  0  0  0  0  0  0  0  0
   19.0426   64.1563    8.6733 C   0  0  0  0  0  0  0  0  0  0  0  0
   18.9725   64.6854    9.9944 O   0  0  0  0  0  0  0  0  0  0  0  0
   19.6814   65.8686   10.2692 C   0  0  0  0  0  0  0  0  0  0  0  0
   20.3304   66.4665    9.2786 N   0  0  0  0  0  0  0  0  0  0  0  0
   21.0372   67.5761    9.4905 C   0  0  0  0  0  0  0  0  0  0  0  0
   21.0889   68.1913   10.7415 C   0  0  0  0  0  0  0  0  0  0  0  0
   20.4148   67.5799   11.8082 C   0  0  0  0  0  0  0  0  0  0  0  0
   20.4962   68.1867   13.0612 N   0  0  0  0  0  0  0  0  0  0  0  0
   19.6936   66.3840   11.5806 C   0  0  0  0  0  0  0  0  0  0  0  0
   18.9903   65.6699   12.6172 C   0  0  0  0  0  0  0  0  0  0  0  0
   18.4161   65.0774   13.4600 N   0  0  0  0  0  0  0  0  0  0  0  0
   21.7075   68.0552    8.3371 N   0  0  0  0  0  0  0  0  0  0  0  0
   22.4047   69.1954    8.1462 C   0  0  0  0  0  0  0  0  0  0  0  0
   22.5523   70.0678    8.9992 O   0  0  0  0  0  0  0  0  0  0  0  0
   23.0735   69.3258    6.8072 C   0  0  0  0  0  0  0  0  0  0  0  0
   22.1387   69.0240    5.6470 C   0  0  0  0  0  0  0  0  0  0  0  0
   21.9881   67.7051    5.1659 C   0  0  0  0  0  0  0  0  0  0  0  0
   22.6876   66.6771    5.8325 O   0  0  0  0  0  0  0  0  0  0  0  0
   22.4334   65.3340    5.4398 C   0  0  0  0  0  0  0  0  0  0  0  0
   21.1398   67.4619    4.0670 C   0  0  0  0  0  0  0  0  0  0  0  0
   20.4470   68.5190    3.4710 C   0  0  0  0  0  0  0  0  0  0  0  0
   20.5909   69.8294    3.9344 C   0  0  0  0  0  0  0  0  0  0  0  0
   21.4468   70.0802    5.0272 C   0  0  0  0  0  0  0  0  0  0  0  0
   19.8418   70.8331    3.2932 O   0  0  0  0  0  0  0  0  0  0  0  0
   20.0231   72.1710    3.7418 C   0  0  0  0  0  0  0  0  0  0  0  0
   21.8293   61.4583    6.2909 H   0  0  0  0  0  0  0  0  0  0  0  0
   21.7727   61.2133    8.0794 H   0  0  0  0  0  0  0  0  0  0  0  0
   22.6274   62.6538    7.3821 H   0  0  0  0  0  0  0  0  0  0  0  0
   21.2313   64.0831    8.7231 H   0  0  0  0  0  0  0  0  0  0  0  0
   20.4026   62.6196    9.3492 H   0  0  0  0  0  0  0  0  0  0  0  0
   18.2035   63.4453    8.5006 H   0  0  0  0  0  0  0  0  0  0  0  0
   18.9956   64.9770    7.9250 H   0  0  0  0  0  0  0  0  0  0  0  0
   21.6313   69.1087   10.9013 H   0  0  0  0  0  0  0  0  0  0  0  0
   20.0360   67.7216   13.8175 H   0  0  0  0  0  0  0  0  0  0  0  0
   21.0542   69.0145   13.1207 H   0  0  0  0  0  0  0  0  0  0  0  0
   21.6836   67.3891    7.5950 H   0  0  0  0  0  0  0  0  0  0  0  0
   23.9364   68.6247    6.7559 H   0  0  0  0  0  0  0  0  0  0  0  0
   23.4722   70.3586    6.6932 H   0  0  0  0  0  0  0  0  0  0  0  0
   23.0365   64.6571    6.0824 H   0  0  0  0  0  0  0  0  0  0  0  0
   22.7330   65.1669    4.3824 H   0  0  0  0  0  0  0  0  0  0  0  0
   21.3594   65.0801    5.5770 H   0  0  0  0  0  0  0  0  0  0  0  0
   20.9938   66.4747    3.6572 H   0  0  0  0  0  0  0  0  0  0  0  0
   19.7931   68.3216    2.6331 H   0  0  0  0  0  0  0  0  0  0  0  0
   21.5795   71.0727    5.4276 H   0  0  0  0  0  0  0  0  0  0  0  0
   19.4006   72.8412    3.1108 H   0  0  0  0  0  0  0  0  0  0  0  0
   21.0866   72.4782    3.6350 H   0  0  0  0  0  0  0  0  0  0  0  0
   19.6950   72.2913    4.7967 H   0  0  0  0  0  0  0  0  0  0  0  0
  1  2  1  0
  1 29  1  0
  1 30  1  0
  1 31  1  0
  2  3  1  0
  3  4  1  0
  3 32  1  0
  3 33  1  0
  4  5  1  0
  4 34  1  0
  4 35  1  0
  5  6  1  0
  6  7  2  0
  6 12  1  0
  7  8  1  0
  8  9  2  0
  8 15  1  0
  9 10  1  0
  9 36  1  0
 10 11  1  0
 10 12  2  0
 11 37  1  0
 11 38  1  0
 12 13  1  0
 13 14  3  0
 15 16  1  0
 15 39  1  0
 16 17  2  0
 16 18  1  0
 18 19  1  0
 18 40  1  0
 18 41  1  0
 19 20  2  0
 19 26  1  0
 20 21  1  0
 20 23  1  0
 21 22  1  0
 22 42  1  0
 22 43  1  0
 22 44  1  0
 23 24  2  0
 23 45  1  0
 24 25  1  0
 24 46  1  0
 25 26  2  0
 25 27  1  0
 26 47  1  0
 27 28  1  0
 28 48  1  0
 28 49  1  0
 28 50  1  0
M  END
> <intraLJ>
28.684    

> <intraEL>
-19.574   

> <intraDihe>
10.318    

> <interLJ>
0.000     

> <interEJ>
0.000     

> <gridLJ>
-11.865   

> <gridEL>
0.000     

> <totalE>
7.563     

> <LGFE>
-11.865 

> <LE>
-0.424  

> <SMILES>
COCCOc1nc(NC(=O)Cc2cc(OC)ccc2OC)cc(N)c1C#N

> <atom.dprop.GFE>
-0.2527 -1.7860 -0.5365 -0.5175 -0.1610 -0.1538 -0.4670 -0.4316 -0.3228 -0.2797 -1.0780 -0.2406 0.0000 0.0000 -0.7360 0.0000 -0.2920 -0.0833 -0.1530 -0.2016 -1.8700 -0.3720 -0.1214 -0.0262 -0.0815 -0.0593 -1.2400 -0.4019 0.0000 0.0000 0.0000 0.0000 0.0000 0.0000 0.0000 0.0000 0.0000 0.0000 0.0000 0.0000 0.0000 0.0000 0.0000 0.0000 0.0000 0.0000 0.0000 0.0000 0.0000 0.0000

> <atom.prop.CLASS>
PRPC DMEO PRPC PRPC DMEO GEHC IMIN GEHC BENC BENC FORN BENC NCLA NCLA FORN NCLA FORO PRPC BENC BENC DMEO PRPC BENC BENC BENC BENC DMEO PRPC NCLA NCLA NCLA NCLA NCLA NCLA NCLA NCLA NCLA NCLA NCLA NCLA NCLA NCLA NCLA NCLA NCLA NCLA NCLA NCLA NCLA NCLA

> <cluster_id>
1

> <rmsd_to_cluster_rep>
0.00    

> <ligRMSD>
1.40    

> <ligCOMD>
1.00    

$$$$
jnk1_abbott_47_20c_517
     RDKit          3D

 52 53  0  0  0  0  0  0  0  0999 V2000
   21.3601   60.2374    9.5855 C   0  0  0  0  0  0  0  0  0  0  0  0
   19.8874   61.2552    9.6836 S   0  0  0  0  0  0  0  0  0  0  0  0
   18.8099   60.5103    9.0876 O   0  0  0  0  0  0  0  0  0  0  0  0
   19.7693   61.7628   11.0260 O   0  0  0  0  0  0  0  0  0  0  0  0
   20.2552   62.6381    8.5813 C   0  0  0  0  0  0  0  0  0  0  0  0
   19.0529   63.5969    8.4977 C   0  0  0  0  0  0  0  0  0  0  0  0
   18.7741   64.1641    9.7845 O   0  0  0  0  0  0  0  0  0  0  0  0
   19.3899   65.3691   10.1636 C   0  0  0  0  0  0  0  0  0  0  0  0
   20.1093   66.0144    9.2640 N   0  0  0  0  0  0  0  0  0  0  0  0
   20.7584   67.1353    9.5479 C   0  0  0  0  0  0  0  0  0  0  0  0
   20.6747   67.7264   10.8071 C   0  0  0  0  0  0  0  0  0  0  0  0
   19.9026   67.0800   11.7922 C   0  0  0  0  0  0  0  0  0  0  0  0
   19.8051   67.6730   13.0528 N   0  0  0  0  0  0  0  0  0  0  0  0
   19.2355   65.8699   11.4719 C   0  0  0  0  0  0  0  0  0  0  0  0
   18.4233   65.1336   12.4098 C   0  0  0  0  0  0  0  0  0  0  0  0
   17.7617   64.5233   13.1722 N   0  0  0  0  0  0  0  0  0  0  0  0
   21.5018   67.6354    8.4514 N   0  0  0  0  0  0  0  0  0  0  0  0
   22.4410   68.5999    8.4255 C   0  0  0  0  0  0  0  0  0  0  0  0
   22.7572   69.2689    9.4064 O   0  0  0  0  0  0  0  0  0  0  0  0
   23.1724   68.7612    7.1201 C   0  0  0  0  0  0  0  0  0  0  0  0
   22.2417   68.8829    5.9216 C   0  0  0  0  0  0  0  0  0  0  0  0
   21.8221   67.7430    5.1966 C   0  0  0  0  0  0  0  0  0  0  0  0
   22.2467   66.4712    5.6477 O   0  0  0  0  0  0  0  0  0  0  0  0
   21.7734   65.3279    4.9440 C   0  0  0  0  0  0  0  0  0  0  0  0
   20.9818   67.9114    4.0767 C   0  0  0  0  0  0  0  0  0  0  0  0
   20.5761   69.1915    3.6875 C   0  0  0  0  0  0  0  0  0  0  0  0
   20.9989   70.3270    4.3851 C   0  0  0  0  0  0  0  0  0  0  0  0
   21.8347   70.1642    5.5090 C   0  0  0  0  0  0  0  0  0  0  0  0
   20.5519   71.5855    3.9312 O   0  0  0  0  0  0  0  0  0  0  0  0
   21.0357   72.7319    4.6234 C   0  0  0  0  0  0  0  0  0  0  0  0
   21.2194   59.3325   10.2137 H   0  0  0  0  0  0  0  0  0  0  0  0
   22.2384   60.8032    9.9552 H   0  0  0  0  0  0  0  0  0  0  0  0
   21.5306   59.9321    8.5317 H   0  0  0  0  0  0  0  0  0  0  0  0
   20.4559   62.2090    7.5763 H   0  0  0  0  0  0  0  0  0  0  0  0
   21.1668   63.1478    8.9546 H   0  0  0  0  0  0  0  0  0  0  0  0
   18.1499   63.0386    8.1677 H   0  0  0  0  0  0  0  0  0  0  0  0
   19.2784   64.3337    7.6951 H   0  0  0  0  0  0  0  0  0  0  0  0
   21.1772   68.6557   11.0235 H   0  0  0  0  0  0  0  0  0  0  0  0
   19.4762   67.0511   13.7636 H   0  0  0  0  0  0  0  0  0  0  0  0
   20.5142   68.3561   13.2275 H   0  0  0  0  0  0  0  0  0  0  0  0
   21.3648   67.0880    7.6289 H   0  0  0  0  0  0  0  0  0  0  0  0
   23.8321   67.8795    6.9592 H   0  0  0  0  0  0  0  0  0  0  0  0
   23.8228   69.6628    7.1722 H   0  0  0  0  0  0  0  0  0  0  0  0
   22.1782   64.4158    5.4325 H   0  0  0  0  0  0  0  0  0  0  0  0
   22.1239   65.3428    3.8889 H   0  0  0  0  0  0  0  0  0  0  0  0
   20.6630   65.2760    4.9754 H   0  0  0  0  0  0  0  0  0  0  0  0
   20.6267   67.0795    3.4888 H   0  0  0  0  0  0  0  0  0  0  0  0
   19.9328   69.3067    2.8264 H   0  0  0  0  0  0  0  0  0  0  0  0
   22.1748   71.0071    6.0896 H   0  0  0  0  0  0  0  0  0  0  0  0
   20.6570   73.6422    4.1110 H   0  0  0  0  0  0  0  0  0  0  0  0
   22.1475   72.7596    4.6081 H   0  0  0  0  0  0  0  0  0  0  0  0
   20.6690   72.7498    5.6726 H   0  0  0  0  0  0  0  0  0  0  0  0
  1  2  1  0
  1 31  1  0
  1 32  1  0
  1 33  1  0
  2  3  2  0
  2  4  2  0
  2  5  1  0
  5  6  1  0
  5 34  1  0
  5 35  1  0
  6  7  1  0
  6 36  1  0
  6 37  1  0
  7  8  1  0
  8  9  2  0
  8 14  1  0
  9 10  1  0
 10 11  2  0
 10 17  1  0
 11 12  1  0
 11 38  1  0
 12 13  1  0
 12 14  2  0
 13 39  1  0
 13 40  1  0
 14 15  1  0
 15 16  3  0
 17 18  1  0
 17 41  1  0
 18 19  2  0
 18 20  1  0
 20 21  1  0
 20 42  1  0
 20 43  1  0
 21 22  2  0
 21 28  1  0
 22 23  1  0
 22 25  1  0
 23 24  1  0
 24 44  1  0
 24 45  1  0
 24 46  1  0
 25 26  2  0
 25 47  1  0
 26 27  1  0
 26 48  1  0
 27 28  2  0
 27 29  1  0
 28 49  1  0
 29 30  1  0
 30 50  1  0
 30 51  1  0
 30 52  1  0
M  END
> <intraLJ>
25.993    

> <intraEL>
-21.525   

> <intraDihe>
10.638    

> <interLJ>
0.000     

> <interEJ>
0.000     

> <gridLJ>
-10.424   

> <gridEL>
0.000     

> <totalE>
4.682     

> <LGFE>
-10.424 

> <LE>
-0.347  

> <SMILES>
COc1ccc(OC)c(CC(=O)Nc2cc(N)c(C#N)c(OCCS(C)(=O)=O)n2)c1

> <atom.dprop.GFE>
0.0679 0.0000 -0.5910 -0.4650 -0.5052 -0.5175 -0.1310 -0.1538 0.0920 -0.4116 -0.3392 -0.2096 -1.0780 -0.1528 0.0000 0.0000 -0.7360 0.0000 -0.9210 -0.0776 -0.1530 -0.2016 -1.8700 -0.2870 -0.1214 -0.0262 -0.0681 0.0792 -1.3490 -0.2977 0.0000 0.0000 0.0000 0.0000 0.0000 0.0000 0.0000 0.0000 0.0000 0.0000 0.0000 0.0000 0.0000 0.0000 0.0000 0.0000 0.0000 0.0000 0.0000 0.0000 0.0000 0.0000

> <atom.prop.CLASS>
PRPC NCLA FORO FORO PRPC PRPC DMEO GEHC IMIN GEHC BENC BENC FORN BENC NCLA NCLA FORN NCLA FORO PRPC BENC BENC DMEO PRPC BENC BENC BENC BENC DMEO PRPC NCLA NCLA NCLA NCLA NCLA NCLA NCLA NCLA NCLA NCLA NCLA NCLA NCLA NCLA NCLA NCLA NCLA NCLA NCLA NCLA NCLA NCLA

> <cluster_id>
1

> <rmsd_to_cluster_rep>
0.00    

> <ligRMSD>
1.32    

> <ligCOMD>
0.98    

$$$$
jnk1_abbott_48_21_1056
     RDKit          3D

 34 34  0  0  0  0  0  0  0  0999 V2000
   18.1317   63.9383    9.8471 S   0  0  0  0  0  0  0  0  0  0  0  0
   18.7705   63.1996    8.3380 C   0  0  0  0  0  0  0  0  0  0  0  0
   19.9933   62.4098    8.8037 C   0  0  0  0  0  0  0  0  0  0  0  0
   20.7672   61.6483    7.7383 C   0  0  0  0  0  0  0  0  0  0  0  0
   19.9022   60.5224    7.1683 C   0  0  0  0  0  0  0  0  0  0  0  0
   19.0465   65.3807   10.2201 C   0  0  0  0  0  0  0  0  0  0  0  0
   19.7306   65.9670    9.2460 N   0  0  0  0  0  0  0  0  0  0  0  0
   20.4452   67.0720    9.4690 C   0  0  0  0  0  0  0  0  0  0  0  0
   20.4732   67.6630   10.7386 C   0  0  0  0  0  0  0  0  0  0  0  0
   19.7545   67.0573   11.7881 C   0  0  0  0  0  0  0  0  0  0  0  0
   19.7900   67.6503   13.0520 N   0  0  0  0  0  0  0  0  0  0  0  0
   19.0170   65.8788   11.5424 C   0  0  0  0  0  0  0  0  0  0  0  0
   18.2583   65.1908   12.5735 C   0  0  0  0  0  0  0  0  0  0  0  0
   17.6234   64.5801   13.3590 N   0  0  0  0  0  0  0  0  0  0  0  0
   21.1339   67.5799    8.3223 N   0  0  0  0  0  0  0  0  0  0  0  0
   22.0877   68.5406    8.2411 C   0  0  0  0  0  0  0  0  0  0  0  0
   22.5424   69.1551    9.2024 O   0  0  0  0  0  0  0  0  0  0  0  0
   22.5991   68.8367    6.8707 C   0  0  0  0  0  0  0  0  0  0  0  0
   19.0671   63.9744    7.5988 H   0  0  0  0  0  0  0  0  0  0  0  0
   18.0236   62.5221    7.8714 H   0  0  0  0  0  0  0  0  0  0  0  0
   19.6745   61.6643    9.5712 H   0  0  0  0  0  0  0  0  0  0  0  0
   20.7103   63.1100    9.2957 H   0  0  0  0  0  0  0  0  0  0  0  0
   21.6931   61.2206    8.1824 H   0  0  0  0  0  0  0  0  0  0  0  0
   21.0615   62.3439    6.9215 H   0  0  0  0  0  0  0  0  0  0  0  0
   19.6098   59.8150    7.9743 H   0  0  0  0  0  0  0  0  0  0  0  0
   20.4559   59.9604    6.3874 H   0  0  0  0  0  0  0  0  0  0  0  0
   18.9760   60.9386    6.7164 H   0  0  0  0  0  0  0  0  0  0  0  0
   21.0219   68.5689   10.9312 H   0  0  0  0  0  0  0  0  0  0  0  0
   19.5392   67.0112   13.7793 H   0  0  0  0  0  0  0  0  0  0  0  0
   20.5772   68.2569   13.1620 H   0  0  0  0  0  0  0  0  0  0  0  0
   20.8430   67.1220    7.4879 H   0  0  0  0  0  0  0  0  0  0  0  0
   22.0975   68.1981    6.1122 H   0  0  0  0  0  0  0  0  0  0  0  0
   23.6940   68.6494    6.8249 H   0  0  0  0  0  0  0  0  0  0  0  0
   22.4125   69.9029    6.6172 H   0  0  0  0  0  0  0  0  0  0  0  0
  1  2  1  0
  1  6  1  0
  2  3  1  0
  2 19  1  0
  2 20  1  0
  3  4  1  0
  3 21  1  0
  3 22  1  0
  4  5  1  0
  4 23  1  0
  4 24  1  0
  5 25  1  0
  5 26  1  0
  5 27  1  0
  6  7  2  0
  6 12  1  0
  7  8  1  0
  8  9  2  0
  8 15  1  0
  9 10  1  0
  9 28  1  0
 10 11  1  0
 10 12  2  0
 11 29  1  0
 11 30  1  0
 12 13  1  0
 13 14  3  0
 15 16  1  0
 15 31  1  0
 16 17  2  0
 16 18  1  0
 18 32  1  0
 18 33  1  0
 18 34  1  0
M  END
> <intraLJ>
15.542    

> <intraEL>
-14.414   

> <intraDihe>
6.902     

> <interLJ>
0.000     

> <interEJ>
0.000     

> <gridLJ>
-6.780    

> <gridEL>
0.000     

> <totalE>
1.250     

> <LGFE>
-6.780  

> <LE>
-0.377  

> <SMILES>
CCCCSc1nc(NC(C)=O)cc(N)c1C#N

> <atom.dprop.GFE>
-0.0563 -0.4948 -0.5052 -0.5048 -0.4239 -0.1538 -0.4020 -0.4116 -0.3392 -0.2406 -1.0780 -0.1528 0.0000 0.0000 -0.7360 0.0000 -0.9210 -0.3596 0.0000 0.0000 0.0000 0.0000 0.0000 0.0000 0.0000 0.0000 0.0000 0.0000 0.0000 0.0000 0.0000 0.0000 0.0000 0.0000

> <atom.prop.CLASS>
PRPC PRPC PRPC PRPC PRPC GEHC IMIN GEHC BENC BENC FORN BENC NCLA NCLA FORN NCLA FORO PRPC NCLA NCLA NCLA NCLA NCLA NCLA NCLA NCLA NCLA NCLA NCLA NCLA NCLA NCLA NCLA NCLA

> <cluster_id>
1

> <rmsd_to_cluster_rep>
0.00    

> <ligRMSD>
1.21    

> <ligCOMD>
0.99    

$$$$
jnk1_abbott_49_22_753
     RDKit          3D

 29 29  0  0  0  0  0  0  0  0999 V2000
   19.6204   65.7947   10.1128 C   0  0  0  0  0  0  0  0  0  0  0  0
   18.8819   64.5374    9.7742 C   0  0  0  0  0  0  0  0  0  0  0  0
   19.7989   63.3369   10.0217 C   0  0  0  0  0  0  0  0  0  0  0  0
   20.9252   63.1987    9.0769 N   0  0  0  0  0  0  0  0  0  0  0  0
   20.2173   66.4207    9.1137 N   0  0  0  0  0  0  0  0  0  0  0  0
   20.8990   67.5460    9.2787 C   0  0  0  0  0  0  0  0  0  0  0  0
   20.9854   68.1577   10.5279 C   0  0  0  0  0  0  0  0  0  0  0  0
   20.3551   67.5408   11.6193 C   0  0  0  0  0  0  0  0  0  0  0  0
   20.4684   68.1646   12.8630 N   0  0  0  0  0  0  0  0  0  0  0  0
   19.6440   66.3305   11.4217 C   0  0  0  0  0  0  0  0  0  0  0  0
   18.9712   65.6357   12.4909 C   0  0  0  0  0  0  0  0  0  0  0  0
   18.4233   65.0577   13.3612 N   0  0  0  0  0  0  0  0  0  0  0  0
   21.4863   68.0244    8.0793 N   0  0  0  0  0  0  0  0  0  0  0  0
   22.3221   69.0643    7.8997 C   0  0  0  0  0  0  0  0  0  0  0  0
   22.7233   69.7959    8.8005 O   0  0  0  0  0  0  0  0  0  0  0  0
   22.7602   69.2890    6.4937 C   0  0  0  0  0  0  0  0  0  0  0  0
   18.5342   64.5716    8.7199 H   0  0  0  0  0  0  0  0  0  0  0  0
   17.9830   64.4699   10.4270 H   0  0  0  0  0  0  0  0  0  0  0  0
   19.1906   62.4005    9.9807 H   0  0  0  0  0  0  0  0  0  0  0  0
   20.2203   63.4062   11.0542 H   0  0  0  0  0  0  0  0  0  0  0  0
   20.6096   63.1024    8.1178 H   0  0  0  0  0  0  0  0  0  0  0  0
   21.4953   62.3821    9.2673 H   0  0  0  0  0  0  0  0  0  0  0  0
   21.5179   69.0824   10.6751 H   0  0  0  0  0  0  0  0  0  0  0  0
   20.0498   67.6986   13.6427 H   0  0  0  0  0  0  0  0  0  0  0  0
   21.0240   68.9958   12.8949 H   0  0  0  0  0  0  0  0  0  0  0  0
   21.2243   67.4690    7.2965 H   0  0  0  0  0  0  0  0  0  0  0  0
   22.3056   68.5382    5.8114 H   0  0  0  0  0  0  0  0  0  0  0  0
   23.8666   69.2084    6.4220 H   0  0  0  0  0  0  0  0  0  0  0  0
   22.4554   70.3037    6.1572 H   0  0  0  0  0  0  0  0  0  0  0  0
  1  2  1  0
  1  5  2  0
  1 10  1  0
  2  3  1  0
  2 17  1  0
  2 18  1  0
  3  4  1  0
  3 19  1  0
  3 20  1  0
  4 21  1  0
  4 22  1  0
  5  6  1  0
  6  7  2  0
  6 13  1  0
  7  8  1  0
  7 23  1  0
  8  9  1  0
  8 10  2  0
  9 24  1  0
  9 25  1  0
 10 11  1  0
 11 12  3  0
 13 14  1  0
 13 26  1  0
 14 15  2  0
 14 16  1  0
 16 27  1  0
 16 28  1  0
 16 29  1  0
M  END
> <intraLJ>
15.560    

> <intraEL>
-17.292   

> <intraDihe>
4.547     

> <interLJ>
0.000     

> <interEJ>
0.000     

> <gridLJ>
-6.226    

> <gridEL>
0.000     

> <totalE>
-3.411    

> <LGFE>
-6.226  

> <LE>
-0.389  

> <SMILES>
CC(=O)Nc1cc(N)c(C#N)c(CCN)n1

> <atom.dprop.GFE>
-0.1538 -0.5022 -0.3503 -1.0120 -0.4670 -0.4316 -0.3228 -0.2797 -1.0780 -0.2406 0.0000 0.0000 -0.7360 0.0000 -0.2920 -0.3596 0.0000 0.0000 0.0000 0.0000 0.0000 0.0000 0.0000 0.0000 0.0000 0.0000 0.0000 0.0000 0.0000

> <atom.prop.CLASS>
GEHC PRPC PRPC FORN IMIN GEHC BENC BENC FORN BENC NCLA NCLA FORN NCLA FORO PRPC NCLA NCLA NCLA NCLA NCLA NCLA NCLA NCLA NCLA NCLA NCLA NCLA NCLA

> <cluster_id>
1

> <rmsd_to_cluster_rep>
0.00    

> <ligRMSD>
1.44    

> <ligCOMD>
0.87    

$$$$
jnk1_abbott_50_23_387
     RDKit          3D

 32 32  0  0  1  0  0  0  0  0999 V2000
   19.1734   65.6013   10.9044 C   0  0  0  0  0  0  0  0  0  0  0  0
   18.2406   64.3924   10.8290 C   0  0  1  0  0  0  0  0  0  0  0  0
   18.6779   63.1560   11.6634 C   0  0  0  0  0  0  0  0  0  0  0  0
   17.8593   61.9213   11.5639 N   0  0  0  0  0  0  0  0  0  0  0  0
   16.8227   64.8729   11.2055 C   0  0  0  0  0  0  0  0  0  0  0  0
   19.6246   66.0322    9.7307 N   0  0  0  0  0  0  0  0  0  0  0  0
   20.3959   67.0988    9.5578 C   0  0  0  0  0  0  0  0  0  0  0  0
   20.7520   67.8796   10.6523 C   0  0  0  0  0  0  0  0  0  0  0  0
   20.2985   67.5058   11.9278 C   0  0  0  0  0  0  0  0  0  0  0  0
   20.6567   68.3233   13.0065 N   0  0  0  0  0  0  0  0  0  0  0  0
   19.4850   66.3519   12.0760 C   0  0  0  0  0  0  0  0  0  0  0  0
   19.0073   65.9885   13.3889 C   0  0  0  0  0  0  0  0  0  0  0  0
   18.6318   65.6731   14.4626 N   0  0  0  0  0  0  0  0  0  0  0  0
   20.7745   67.3447    8.2052 N   0  0  0  0  0  0  0  0  0  0  0  0
   21.6576   68.2417    7.7111 C   0  0  0  0  0  0  0  0  0  0  0  0
   22.3041   69.0315    8.3943 O   0  0  0  0  0  0  0  0  0  0  0  0
   21.8289   68.2271    6.2298 C   0  0  0  0  0  0  0  0  0  0  0  0
   18.1949   64.0452    9.7684 H   0  0  0  0  0  0  0  0  0  0  0  0
   18.6261   63.4187   12.7424 H   0  0  0  0  0  0  0  0  0  0  0  0
   19.7346   62.9040   11.4163 H   0  0  0  0  0  0  0  0  0  0  0  0
   16.9001   62.0805   11.8530 H   0  0  0  0  0  0  0  0  0  0  0  0
   18.2074   61.1839   12.1674 H   0  0  0  0  0  0  0  0  0  0  0  0
   16.7943   65.2293   12.2571 H   0  0  0  0  0  0  0  0  0  0  0  0
   16.0976   64.0382   11.1013 H   0  0  0  0  0  0  0  0  0  0  0  0
   16.4940   65.6984   10.5387 H   0  0  0  0  0  0  0  0  0  0  0  0
   21.3555   68.7656   10.5428 H   0  0  0  0  0  0  0  0  0  0  0  0
   20.5716   67.8589   13.8883 H   0  0  0  0  0  0  0  0  0  0  0  0
   21.4499   68.8976   12.8045 H   0  0  0  0  0  0  0  0  0  0  0  0
   20.3075   66.7307    7.5764 H   0  0  0  0  0  0  0  0  0  0  0  0
   21.1783   67.4569    5.7621 H   0  0  0  0  0  0  0  0  0  0  0  0
   22.8866   68.0023    5.9715 H   0  0  0  0  0  0  0  0  0  0  0  0
   21.5644   69.2202    5.8060 H   0  0  0  0  0  0  0  0  0  0  0  0
  1  2  1  0
  1  6  2  0
  1 11  1  0
  2  3  1  0
  2  5  1  0
  2 18  1  6
  3  4  1  0
  3 19  1  0
  3 20  1  0
  4 21  1  0
  4 22  1  0
  5 23  1  0
  5 24  1  0
  5 25  1  0
  6  7  1  0
  7  8  2  0
  7 14  1  0
  8  9  1  0
  8 26  1  0
  9 10  1  0
  9 11  2  0
 10 27  1  0
 10 28  1  0
 11 12  1  0
 12 13  3  0
 14 15  1  0
 14 29  1  0
 15 16  2  0
 15 17  1  0
 17 30  1  0
 17 31  1  0
 17 32  1  0
M  END
> <intraLJ>
14.812    

> <intraEL>
-13.278   

> <intraDihe>
6.397     

> <interLJ>
0.000     

> <interEJ>
0.000     

> <gridLJ>
-6.147    

> <gridEL>
0.000     

> <totalE>
1.784     

> <LGFE>
-6.147  

> <LE>
-0.362  

> <SMILES>
CC(=O)Nc1cc(N)c(C#N)c([C@H](C)CN)n1

> <atom.dprop.GFE>
-0.1538 -0.1901 -0.1722 -0.6900 -0.2308 -0.4020 -0.4116 -0.3392 -0.2797 -1.0780 -0.2406 0.0000 0.0000 -0.7360 0.0000 -0.6260 -0.5971 0.0000 0.0000 0.0000 0.0000 0.0000 0.0000 0.0000 0.0000 0.0000 0.0000 0.0000 0.0000 0.0000 0.0000 0.0000

> <atom.prop.CLASS>
GEHC PRPC PRPC FORN PRPC IMIN GEHC BENC BENC FORN BENC NCLA NCLA FORN NCLA FORO PRPC NCLA NCLA NCLA NCLA NCLA NCLA NCLA NCLA NCLA NCLA NCLA NCLA NCLA NCLA NCLA

> <cluster_id>
1

> <rmsd_to_cluster_rep>
0.00    

> <ligRMSD>
1.66    

> <ligCOMD>
0.96    

$$$$
jnk1_abbott_51_24_969
     RDKit          3D

 31 32  0  0  0  0  0  0  0  0999 V2000
   19.9336   64.9741    9.7063 C   0  0  0  0  0  0  0  0  0  0  0  0
   20.6253   65.6711    8.8130 N   0  0  0  0  0  0  0  0  0  0  0  0
   21.0478   66.8969    9.1179 C   0  0  0  0  0  0  0  0  0  0  0  0
   20.7674   67.4946   10.3516 C   0  0  0  0  0  0  0  0  0  0  0  0
   20.0375   66.7575   11.2975 C   0  0  0  0  0  0  0  0  0  0  0  0
   19.7857   67.3612   12.5285 N   0  0  0  0  0  0  0  0  0  0  0  0
   19.5951   65.4521   10.9838 C   0  0  0  0  0  0  0  0  0  0  0  0
   18.8486   64.6223   11.8961 C   0  0  0  0  0  0  0  0  0  0  0  0
   18.2391   63.9271   12.6274 N   0  0  0  0  0  0  0  0  0  0  0  0
   21.7845   67.5036    8.0672 N   0  0  0  0  0  0  0  0  0  0  0  0
   22.5441   68.6148    8.0869 C   0  0  0  0  0  0  0  0  0  0  0  0
   22.7247   69.3134    9.0802 O   0  0  0  0  0  0  0  0  0  0  0  0
   23.1867   68.9651    6.7886 C   0  0  0  0  0  0  0  0  0  0  0  0
   18.7958   61.0158    8.4886 C   0  0  0  0  0  0  0  0  0  0  0  0
   17.8126   61.9920    8.6977 C   0  0  0  0  0  0  0  0  0  0  0  0
   18.1816   63.2880    9.0766 C   0  0  0  0  0  0  0  0  0  0  0  0
   19.5417   63.6110    9.2281 C   0  0  0  0  0  0  0  0  0  0  0  0
   20.5261   62.6240    9.0418 C   0  0  0  0  0  0  0  0  0  0  0  0
   20.1502   61.3299    8.6630 C   0  0  0  0  0  0  0  0  0  0  0  0
   21.0927   68.4920   10.5935 H   0  0  0  0  0  0  0  0  0  0  0  0
   19.2836   66.8201   13.2033 H   0  0  0  0  0  0  0  0  0  0  0  0
   20.1556   68.2814   12.6575 H   0  0  0  0  0  0  0  0  0  0  0  0
   21.7049   66.9865    7.2207 H   0  0  0  0  0  0  0  0  0  0  0  0
   22.9177   68.2280    6.0012 H   0  0  0  0  0  0  0  0  0  0  0  0
   24.2926   68.9750    6.9012 H   0  0  0  0  0  0  0  0  0  0  0  0
   22.8541   69.9731    6.4584 H   0  0  0  0  0  0  0  0  0  0  0  0
   18.5084   60.0165    8.1965 H   0  0  0  0  0  0  0  0  0  0  0  0
   16.7691   61.7437    8.5705 H   0  0  0  0  0  0  0  0  0  0  0  0
   17.4159   64.0316    9.2494 H   0  0  0  0  0  0  0  0  0  0  0  0
   21.5723   62.8545    9.1878 H   0  0  0  0  0  0  0  0  0  0  0  0
   20.9045   60.5723    8.5092 H   0  0  0  0  0  0  0  0  0  0  0  0
  1  2  2  0
  1  7  1  0
  1 17  1  0
  2  3  1  0
  3  4  2  0
  3 10  1  0
  4  5  1  0
  4 20  1  0
  5  6  1  0
  5  7  2  0
  6 21  1  0
  6 22  1  0
  7  8  1  0
  8  9  3  0
 10 11  1  0
 10 23  1  0
 11 12  2  0
 11 13  1  0
 13 24  1  0
 13 25  1  0
 13 26  1  0
 14 15  2  0
 14 19  1  0
 14 27  1  0
 15 16  1  0
 15 28  1  0
 16 17  2  0
 16 29  1  0
 17 18  1  0
 18 19  2  0
 18 30  1  0
 19 31  1  0
M  END
> <intraLJ>
25.483    

> <intraEL>
-14.501   

> <intraDihe>
11.418    

> <interLJ>
0.000     

> <interEJ>
0.000     

> <gridLJ>
-5.076    

> <gridEL>
0.000     

> <totalE>
17.324    

> <LGFE>
-5.076  

> <LE>
-0.267  

> <SMILES>
CC(=O)Nc1cc(N)c(C#N)c(-c2ccccc2)n1

> <atom.dprop.GFE>
-0.1842 0.3080 -0.3283 -0.3392 -0.2096 -1.0780 -0.2896 0.0000 0.0000 -1.0190 0.0000 -0.9210 -0.0833 -0.1570 -0.0890 -0.0862 -0.1670 -0.2188 -0.2139 0.0000 0.0000 0.0000 0.0000 0.0000 0.0000 0.0000 0.0000 0.0000 0.0000 0.0000 0.0000

> <atom.prop.CLASS>
BENC IMIN GEHC BENC BENC FORN BENC NCLA NCLA FORN NCLA FORO PRPC BENC BENC BENC BENC BENC BENC NCLA NCLA NCLA NCLA NCLA NCLA NCLA NCLA NCLA NCLA NCLA NCLA

> <cluster_id>
1

> <rmsd_to_cluster_rep>
0.00    

> <ligRMSD>
1.04    

> <ligCOMD>
1.00    

$$$$
jnk1_abbott_52_25_1188
     RDKit          3D

 30 30  0  0  0  0  0  0  0  0999 V2000
   20.2548   66.8064   10.6253 C   0  0  0  0  0  0  0  0  0  0  0  0
   19.7871   67.3829   11.9259 C   0  0  0  0  0  0  0  0  0  0  0  0
   18.7864   66.4500   12.6196 C   0  0  0  0  0  0  0  0  0  0  0  0
   18.3344   67.0100   13.9635 C   0  0  0  0  0  0  0  0  0  0  0  0
   19.7497   65.6567   10.2044 N   0  0  0  0  0  0  0  0  0  0  0  0
   20.1185   65.0658    9.0763 C   0  0  0  0  0  0  0  0  0  0  0  0
   21.0677   65.6651    8.2476 C   0  0  0  0  0  0  0  0  0  0  0  0
   21.6354   66.8911    8.6473 C   0  0  0  0  0  0  0  0  0  0  0  0
   22.5718   67.4960    7.8064 N   0  0  0  0  0  0  0  0  0  0  0  0
   21.2277   67.4833    9.8659 C   0  0  0  0  0  0  0  0  0  0  0  0
   21.7492   68.7314   10.3707 C   0  0  0  0  0  0  0  0  0  0  0  0
   22.1653   69.7479   10.8018 N   0  0  0  0  0  0  0  0  0  0  0  0
   19.4543   63.8296    8.8350 N   0  0  0  0  0  0  0  0  0  0  0  0
   19.7210   62.8867    7.9072 C   0  0  0  0  0  0  0  0  0  0  0  0
   20.6304   62.9609    7.0858 O   0  0  0  0  0  0  0  0  0  0  0  0
   18.8275   61.6933    7.9268 C   0  0  0  0  0  0  0  0  0  0  0  0
   19.3048   68.3638   11.7215 H   0  0  0  0  0  0  0  0  0  0  0  0
   20.6731   67.5326   12.5812 H   0  0  0  0  0  0  0  0  0  0  0  0
   19.2519   65.4522   12.7899 H   0  0  0  0  0  0  0  0  0  0  0  0
   17.8893   66.3080   11.9745 H   0  0  0  0  0  0  0  0  0  0  0  0
   19.2068   67.1412   14.6394 H   0  0  0  0  0  0  0  0  0  0  0  0
   17.6106   66.3211   14.4486 H   0  0  0  0  0  0  0  0  0  0  0  0
   17.8451   67.9981   13.8243 H   0  0  0  0  0  0  0  0  0  0  0  0
   21.3691   65.2195    7.3146 H   0  0  0  0  0  0  0  0  0  0  0  0
   23.1254   68.1918    8.2642 H   0  0  0  0  0  0  0  0  0  0  0  0
   22.9666   66.8639    7.1396 H   0  0  0  0  0  0  0  0  0  0  0  0
   18.7075   63.6830    9.4763 H   0  0  0  0  0  0  0  0  0  0  0  0
   18.0631   61.7821    8.7287 H   0  0  0  0  0  0  0  0  0  0  0  0
   19.4254   60.7735    8.1068 H   0  0  0  0  0  0  0  0  0  0  0  0
   18.3069   61.5917    6.9498 H   0  0  0  0  0  0  0  0  0  0  0  0
  1  2  1  0
  1  5  2  0
  1 10  1  0
  2  3  1  0
  2 17  1  0
  2 18  1  0
  3  4  1  0
  3 19  1  0
  3 20  1  0
  4 21  1  0
  4 22  1  0
  4 23  1  0
  5  6  1  0
  6  7  2  0
  6 13  1  0
  7  8  1  0
  7 24  1  0
  8  9  1  0
  8 10  2  0
  9 25  1  0
  9 26  1  0
 10 11  1  0
 11 12  3  0
 13 14  1  0
 13 27  1  0
 14 15  2  0
 14 16  1  0
 16 28  1  0
 16 29  1  0
 16 30  1  0
M  END
> <intraLJ>
14.557    

> <intraEL>
-16.408   

> <intraDihe>
4.712     

> <interLJ>
0.000     

> <interEJ>
0.000     

> <gridLJ>
-5.919    

> <gridEL>
0.000     

> <totalE>
-3.058    

> <LGFE>
-5.919  

> <LE>
-0.370  

> <SMILES>
CCCc1nc(NC(C)=O)cc(N)c1C#N

> <atom.dprop.GFE>
-0.4555 -0.6810 -0.2381 0.1275 -1.0620 -0.0423 -0.2146 -0.3168 -1.0190 -0.3484 0.0000 0.0000 -0.4290 0.0000 -0.7130 -0.5268 0.0000 0.0000 0.0000 0.0000 0.0000 0.0000 0.0000 0.0000 0.0000 0.0000 0.0000 0.0000 0.0000 0.0000

> <atom.prop.CLASS>
GEHC PRPC PRPC PRPC IMIN GEHC BENC BENC FORN BENC NCLA NCLA FORN NCLA FORO PRPC NCLA NCLA NCLA NCLA NCLA NCLA NCLA NCLA NCLA NCLA NCLA NCLA NCLA NCLA

> <cluster_id>
1

> <rmsd_to_cluster_rep>
0.00    

> <ligRMSD>
5.43    

> <ligCOMD>
0.84    

$$$$
jnk1_abbott_53_26_488
     RDKit          3D

 39 40  0  0  0  0  0  0  0  0999 V2000
   18.9087   65.7851    9.9170 C   0  0  0  0  0  0  0  0  0  0  0  0
   19.7764   66.3527    9.0895 N   0  0  0  0  0  0  0  0  0  0  0  0
   20.6419   67.2681    9.5251 C   0  0  0  0  0  0  0  0  0  0  0  0
   20.6483   67.7073   10.8491 C   0  0  0  0  0  0  0  0  0  0  0  0
   19.7432   67.1189   11.7449 C   0  0  0  0  0  0  0  0  0  0  0  0
   19.7777   67.5482   13.0718 N   0  0  0  0  0  0  0  0  0  0  0  0
   18.8484   66.1241   11.2779 C   0  0  0  0  0  0  0  0  0  0  0  0
   17.9001   65.4426   12.1179 C   0  0  0  0  0  0  0  0  0  0  0  0
   17.1287   64.8885   12.8174 N   0  0  0  0  0  0  0  0  0  0  0  0
   21.5204   67.7403    8.5203 N   0  0  0  0  0  0  0  0  0  0  0  0
   22.4903   68.6750    8.5802 C   0  0  0  0  0  0  0  0  0  0  0  0
   22.7636   69.3256    9.5865 O   0  0  0  0  0  0  0  0  0  0  0  0
   23.2987   68.8428    7.3254 C   0  0  0  0  0  0  0  0  0  0  0  0
   22.4457   68.9169    6.0689 C   0  0  0  0  0  0  0  0  0  0  0  0
   22.1298   67.7520    5.3376 C   0  0  0  0  0  0  0  0  0  0  0  0
   22.5735   66.5159    5.8504 O   0  0  0  0  0  0  0  0  0  0  0  0
   22.2063   65.3321    5.1543 C   0  0  0  0  0  0  0  0  0  0  0  0
   21.3818   67.8627    4.1476 C   0  0  0  0  0  0  0  0  0  0  0  0
   20.9505   69.1180    3.7073 C   0  0  0  0  0  0  0  0  0  0  0  0
   21.2556   70.2791    4.4251 C   0  0  0  0  0  0  0  0  0  0  0  0
   22.0112   70.1721    5.6101 C   0  0  0  0  0  0  0  0  0  0  0  0
   20.7615   71.5033    3.9357 O   0  0  0  0  0  0  0  0  0  0  0  0
   21.0997   72.6814    4.6600 C   0  0  0  0  0  0  0  0  0  0  0  0
   18.2416   65.0376    9.5057 H   0  0  0  0  0  0  0  0  0  0  0  0
   21.3255   68.4734   11.1896 H   0  0  0  0  0  0  0  0  0  0  0  0
   19.1430   67.1077   13.7068 H   0  0  0  0  0  0  0  0  0  0  0  0
   20.4599   68.2442   13.2972 H   0  0  0  0  0  0  0  0  0  0  0  0
   21.4061   67.2334    7.6689 H   0  0  0  0  0  0  0  0  0  0  0  0
   24.0003   67.9848    7.2224 H   0  0  0  0  0  0  0  0  0  0  0  0
   23.9113   69.7687    7.4040 H   0  0  0  0  0  0  0  0  0  0  0  0
   22.6115   64.4575    5.7073 H   0  0  0  0  0  0  0  0  0  0  0  0
   22.6372   65.3248    4.1297 H   0  0  0  0  0  0  0  0  0  0  0  0
   21.0999   65.2322    5.1043 H   0  0  0  0  0  0  0  0  0  0  0  0
   21.1208   67.0044    3.5485 H   0  0  0  0  0  0  0  0  0  0  0  0
   20.3733   69.1935    2.7964 H   0  0  0  0  0  0  0  0  0  0  0  0
   22.2635   71.0370    6.2027 H   0  0  0  0  0  0  0  0  0  0  0  0
   20.6686   73.5572    4.1290 H   0  0  0  0  0  0  0  0  0  0  0  0
   22.2036   72.8086    4.7053 H   0  0  0  0  0  0  0  0  0  0  0  0
   20.6753   72.6616    5.6869 H   0  0  0  0  0  0  0  0  0  0  0  0
  1  2  2  0
  1  7  1  0
  1 24  1  0
  2  3  1  0
  3  4  2  0
  3 10  1  0
  4  5  1  0
  4 25  1  0
  5  6  1  0
  5  7  2  0
  6 26  1  0
  6 27  1  0
  7  8  1  0
  8  9  3  0
 10 11  1  0
 10 28  1  0
 11 12  2  0
 11 13  1  0
 13 14  1  0
 13 29  1  0
 13 30  1  0
 14 15  2  0
 14 21  1  0
 15 16  1  0
 15 18  1  0
 16 17  1  0
 17 31  1  0
 17 32  1  0
 17 33  1  0
 18 19  2  0
 18 34  1  0
 19 20  1  0
 19 35  1  0
 20 21  2  0
 20 22  1  0
 21 36  1  0
 22 23  1  0
 23 37  1  0
 23 38  1  0
 23 39  1  0
M  END
> <intraLJ>
27.273    

> <intraEL>
-13.234   

> <intraDihe>
5.983     

> <interLJ>
0.000     

> <interEJ>
0.000     

> <gridLJ>
-8.938    

> <gridEL>
0.000     

> <totalE>
11.085    

> <LGFE>
-8.938  

> <LE>
-0.389  

> <SMILES>
COc1ccc(OC)c(CC(=O)Nc2cc(N)c(C#N)cn2)c1

> <atom.dprop.GFE>
-0.0929 -0.4670 -0.4116 -0.3392 -0.2406 -1.0780 -0.1528 0.0000 0.0000 -0.7360 0.0000 -0.9210 -0.0776 -0.1530 -0.2016 -1.8700 -0.3720 -0.1331 -0.0648 -0.0593 0.0792 -1.3490 -0.2977 0.0000 0.0000 0.0000 0.0000 0.0000 0.0000 0.0000 0.0000 0.0000 0.0000 0.0000 0.0000 0.0000 0.0000 0.0000 0.0000

> <atom.prop.CLASS>
GEHC IMIN GEHC BENC BENC FORN BENC NCLA NCLA FORN NCLA FORO PRPC BENC BENC DMEO PRPC BENC BENC BENC BENC DMEO PRPC NCLA NCLA NCLA NCLA NCLA NCLA NCLA NCLA NCLA NCLA NCLA NCLA NCLA NCLA NCLA NCLA

> <cluster_id>
1

> <rmsd_to_cluster_rep>
0.00    

> <ligRMSD>
0.96    

> <ligCOMD>
0.74    

$$$$
jnk1_abbott_54_39_815
     RDKit          3D

 29 29  0  0  0  0  0  0  0  0999 V2000
   20.5662   61.4067    7.4619 C   0  0  0  0  0  0  0  0  0  0  0  0
   20.7052   62.8772    7.8615 C   0  0  0  0  0  0  0  0  0  0  0  0
   19.9908   63.0478    9.0780 O   0  0  0  0  0  0  0  0  0  0  0  0
   20.0203   64.3129    9.6737 C   0  0  0  0  0  0  0  0  0  0  0  0
   20.6512   65.3016    9.0542 N   0  0  0  0  0  0  0  0  0  0  0  0
   20.7258   66.5173    9.5942 C   0  0  0  0  0  0  0  0  0  0  0  0
   20.1065   66.8249   10.8061 C   0  0  0  0  0  0  0  0  0  0  0  0
   19.4322   65.7894   11.4741 C   0  0  0  0  0  0  0  0  0  0  0  0
   18.7699   66.0673   12.7827 C   0  0  0  0  0  0  0  0  0  0  0  0
   19.3883   64.5021   10.9117 C   0  0  0  0  0  0  0  0  0  0  0  0
   18.7356   63.3998   11.5685 C   0  0  0  0  0  0  0  0  0  0  0  0
   18.2091   62.4824   12.0912 N   0  0  0  0  0  0  0  0  0  0  0  0
   21.4737   67.4294    8.8101 N   0  0  0  0  0  0  0  0  0  0  0  0
   21.9369   68.6535    9.1253 C   0  0  0  0  0  0  0  0  0  0  0  0
   21.7328   69.2261   10.1931 O   0  0  0  0  0  0  0  0  0  0  0  0
   22.7671   69.2937    8.0670 C   0  0  0  0  0  0  0  0  0  0  0  0
   21.1082   61.2072    6.5135 H   0  0  0  0  0  0  0  0  0  0  0  0
   19.4955   61.1450    7.3190 H   0  0  0  0  0  0  0  0  0  0  0  0
   20.9849   60.7490    8.2539 H   0  0  0  0  0  0  0  0  0  0  0  0
   20.2762   63.5202    7.0600 H   0  0  0  0  0  0  0  0  0  0  0  0
   21.7798   63.1281    8.0068 H   0  0  0  0  0  0  0  0  0  0  0  0
   20.1318   67.8119   11.2355 H   0  0  0  0  0  0  0  0  0  0  0  0
   18.9094   67.1325   13.0688 H   0  0  0  0  0  0  0  0  0  0  0  0
   19.2222   65.4150   13.5603 H   0  0  0  0  0  0  0  0  0  0  0  0
   17.6843   65.8499   12.6891 H   0  0  0  0  0  0  0  0  0  0  0  0
   21.7160   67.0355    7.9292 H   0  0  0  0  0  0  0  0  0  0  0  0
   22.8277   68.6467    7.1648 H   0  0  0  0  0  0  0  0  0  0  0  0
   23.7977   69.4675    8.4460 H   0  0  0  0  0  0  0  0  0  0  0  0
   22.3265   70.2708    7.7730 H   0  0  0  0  0  0  0  0  0  0  0  0
  1  2  1  0
  1 17  1  0
  1 18  1  0
  1 19  1  0
  2  3  1  0
  2 20  1  0
  2 21  1  0
  3  4  1  0
  4  5  2  0
  4 10  1  0
  5  6  1  0
  6  7  2  0
  6 13  1  0
  7  8  1  0
  7 22  1  0
  8  9  1  0
  8 10  2  0
  9 23  1  0
  9 24  1  0
  9 25  1  0
 10 11  1  0
 11 12  3  0
 13 14  1  0
 13 26  1  0
 14 15  2  0
 14 16  1  0
 16 27  1  0
 16 28  1  0
 16 29  1  0
M  END
> <intraLJ>
14.699    

> <intraEL>
-19.387   

> <intraDihe>
4.372     

> <interLJ>
0.000     

> <interEJ>
0.000     

> <gridLJ>
-6.271    

> <gridEL>
0.000     

> <totalE>
-6.586    

> <LGFE>
-6.271  

> <LE>
-0.392  

> <SMILES>
CCOc1nc(NC(C)=O)cc(C)c1C#N

> <atom.dprop.GFE>
-0.5048 -0.5395 -1.2840 -0.0559 -0.3510 -0.4116 -0.2640 -0.1528 -0.2328 -0.1354 0.0000 0.0000 -0.7360 0.0000 -1.3340 -0.2687 0.0000 0.0000 0.0000 0.0000 0.0000 0.0000 0.0000 0.0000 0.0000 0.0000 0.0000 0.0000 0.0000

> <atom.prop.CLASS>
PRPC PRPC DMEO GEHC IMIN GEHC BENC BENC PRPC BENC NCLA NCLA FORN NCLA FORO PRPC NCLA NCLA NCLA NCLA NCLA NCLA NCLA NCLA NCLA NCLA NCLA NCLA NCLA

> <cluster_id>
1

> <rmsd_to_cluster_rep>
0.00    

> <ligRMSD>
1.36    

> <ligCOMD>
0.95    

$$$$
jnk1_abbott_55_46_641
     RDKit          3D

 25 25  0  0  0  0  0  0  0  0999 V2000
   20.0556   61.4711    7.2171 C   0  0  0  0  0  0  0  0  0  0  0  0
   20.3070   62.9017    7.7022 C   0  0  0  0  0  0  0  0  0  0  0  0
   19.8307   62.9853    9.0424 O   0  0  0  0  0  0  0  0  0  0  0  0
   19.9493   64.2146    9.6957 C   0  0  0  0  0  0  0  0  0  0  0  0
   20.5012   65.2349    9.0538 N   0  0  0  0  0  0  0  0  0  0  0  0
   20.6507   66.4141    9.6574 C   0  0  0  0  0  0  0  0  0  0  0  0
   20.1964   66.6519   10.9611 C   0  0  0  0  0  0  0  0  0  0  0  0
   19.6095   65.5768   11.6477 C   0  0  0  0  0  0  0  0  0  0  0  0
   19.4857   64.3337   11.0154 C   0  0  0  0  0  0  0  0  0  0  0  0
   21.2959   67.3666    8.8333 N   0  0  0  0  0  0  0  0  0  0  0  0
   21.7616   68.5908    9.1383 C   0  0  0  0  0  0  0  0  0  0  0  0
   21.6540   69.1233   10.2398 O   0  0  0  0  0  0  0  0  0  0  0  0
   22.4689   69.2836    8.0241 C   0  0  0  0  0  0  0  0  0  0  0  0
   20.4094   61.3448    6.1722 H   0  0  0  0  0  0  0  0  0  0  0  0
   18.9698   61.2372    7.2537 H   0  0  0  0  0  0  0  0  0  0  0  0
   20.5929   60.7442    7.8633 H   0  0  0  0  0  0  0  0  0  0  0  0
   19.7593   63.6148    7.0454 H   0  0  0  0  0  0  0  0  0  0  0  0
   21.3969   63.1244    7.6657 H   0  0  0  0  0  0  0  0  0  0  0  0
   20.2852   67.6106   11.4425 H   0  0  0  0  0  0  0  0  0  0  0  0
   19.2579   65.7087   12.6604 H   0  0  0  0  0  0  0  0  0  0  0  0
   19.0417   63.4924   11.5238 H   0  0  0  0  0  0  0  0  0  0  0  0
   21.4529   67.0045    7.9202 H   0  0  0  0  0  0  0  0  0  0  0  0
   22.4539   68.6663    7.0995 H   0  0  0  0  0  0  0  0  0  0  0  0
   23.5280   69.4703    8.3060 H   0  0  0  0  0  0  0  0  0  0  0  0
   21.9813   70.2585    7.8075 H   0  0  0  0  0  0  0  0  0  0  0  0
  1  2  1  0
  1 14  1  0
  1 15  1  0
  1 16  1  0
  2  3  1  0
  2 17  1  0
  2 18  1  0
  3  4  1  0
  4  5  2  0
  4  9  1  0
  5  6  1  0
  6  7  2  0
  6 10  1  0
  7  8  1  0
  7 19  1  0
  8  9  2  0
  8 20  1  0
  9 21  1  0
 10 11  1  0
 10 22  1  0
 11 12  2  0
 11 13  1  0
 13 23  1  0
 13 24  1  0
 13 25  1  0
M  END
> <intraLJ>
14.174    

> <intraEL>
-15.036   

> <intraDihe>
4.194     

> <interLJ>
0.000     

> <interEJ>
0.000     

> <gridLJ>
-6.038    

> <gridEL>
0.000     

> <totalE>
-2.706    

> <LGFE>
-6.038  

> <LE>
-0.464  

> <SMILES>
CCOc1cccc(NC(C)=O)n1

> <atom.dprop.GFE>
-0.5048 -0.5395 -1.2840 -0.0559 -0.3510 -0.4116 -0.2640 -0.1528 -0.1354 -0.7360 0.0000 -1.3340 -0.2687 0.0000 0.0000 0.0000 0.0000 0.0000 0.0000 0.0000 0.0000 0.0000 0.0000 0.0000 0.0000

> <atom.prop.CLASS>
PRPC PRPC DMEO GEHC IMIN GEHC BENC BENC BENC FORN NCLA FORO PRPC NCLA NCLA NCLA NCLA NCLA NCLA NCLA NCLA NCLA NCLA NCLA NCLA

> <cluster_id>
1

> <rmsd_to_cluster_rep>
0.00    

> <ligRMSD>
1.39    

> <ligCOMD>
1.06    

$$$$
jnk1_abbott_56_43_529
     RDKit          3D

 28 28  0  0  0  0  0  0  0  0999 V2000
   18.7544   67.3043   14.0440 C   0  0  0  0  0  0  0  0  0  0  0  0
   18.9688   66.4211   12.8115 C   0  0  0  0  0  0  0  0  0  0  0  0
   19.7892   67.1895   11.9445 O   0  0  0  0  0  0  0  0  0  0  0  0
   20.1298   66.6731   10.6862 C   0  0  0  0  0  0  0  0  0  0  0  0
   19.6887   65.4717   10.3335 N   0  0  0  0  0  0  0  0  0  0  0  0
   20.0021   64.9479    9.1474 C   0  0  0  0  0  0  0  0  0  0  0  0
   20.7646   65.6522    8.2069 C   0  0  0  0  0  0  0  0  0  0  0  0
   21.2436   66.9229    8.5567 C   0  0  0  0  0  0  0  0  0  0  0  0
   22.0166   67.6262    7.6299 N   0  0  0  0  0  0  0  0  0  0  0  0
   20.9292   67.4496    9.8267 C   0  0  0  0  0  0  0  0  0  0  0  0
   19.4646   63.6499    8.9313 N   0  0  0  0  0  0  0  0  0  0  0  0
   19.8361   62.7263    8.0208 C   0  0  0  0  0  0  0  0  0  0  0  0
   20.7429   62.8815    7.2068 O   0  0  0  0  0  0  0  0  0  0  0  0
   19.0733   61.4470    8.0617 C   0  0  0  0  0  0  0  0  0  0  0  0
   21.3996   68.7411   10.2564 C   0  0  0  0  0  0  0  0  0  0  0  0
   21.8012   69.8002   10.5829 N   0  0  0  0  0  0  0  0  0  0  0  0
   18.1178   66.7882   14.7927 H   0  0  0  0  0  0  0  0  0  0  0  0
   18.2592   68.2565   13.7547 H   0  0  0  0  0  0  0  0  0  0  0  0
   19.7299   67.5491   14.5176 H   0  0  0  0  0  0  0  0  0  0  0  0
   17.9922   66.1926   12.3302 H   0  0  0  0  0  0  0  0  0  0  0  0
   19.4799   65.4763   13.1011 H   0  0  0  0  0  0  0  0  0  0  0  0
   20.9799   65.2523    7.2302 H   0  0  0  0  0  0  0  0  0  0  0  0
   22.3386   68.5314    7.9088 H   0  0  0  0  0  0  0  0  0  0  0  0
   22.1890   67.1751    6.7544 H   0  0  0  0  0  0  0  0  0  0  0  0
   18.7482   63.4292    9.5858 H   0  0  0  0  0  0  0  0  0  0  0  0
   18.2936   61.4748    8.8534 H   0  0  0  0  0  0  0  0  0  0  0  0
   19.7619   60.6000    8.2724 H   0  0  0  0  0  0  0  0  0  0  0  0
   18.5784   61.2667    7.0828 H   0  0  0  0  0  0  0  0  0  0  0  0
  1  2  1  0
  1 17  1  0
  1 18  1  0
  1 19  1  0
  2  3  1  0
  2 20  1  0
  2 21  1  0
  3  4  1  0
  4  5  2  0
  4 10  1  0
  5  6  1  0
  6  7  2  0
  6 11  1  0
  7  8  1  0
  7 22  1  0
  8  9  1  0
  8 10  2  0
  9 23  1  0
  9 24  1  0
 10 15  1  0
 11 12  1  0
 11 25  1  0
 12 13  2  0
 12 14  1  0
 14 26  1  0
 14 27  1  0
 14 28  1  0
 15 16  3  0
M  END
> <intraLJ>
15.212    

> <intraEL>
-21.685   

> <intraDihe>
4.760     

> <interLJ>
0.000     

> <interEJ>
0.000     

> <gridLJ>
-5.587    

> <gridEL>
0.000     

> <totalE>
-7.300    

> <LGFE>
-5.587  

> <LE>
-0.349  

> <SMILES>
CCOc1nc(NC(C)=O)cc(N)c1C#N

> <atom.dprop.GFE>
0.1275 -0.2381 -0.3160 -0.4555 -1.0620 0.0233 -0.3131 -0.3168 -1.0190 -0.3484 -0.4290 0.0000 -0.7130 -0.5268 0.0000 0.0000 0.0000 0.0000 0.0000 0.0000 0.0000 0.0000 0.0000 0.0000 0.0000 0.0000 0.0000 0.0000

> <atom.prop.CLASS>
PRPC PRPC DMEO GEHC IMIN GEHC BENC BENC FORN BENC FORN NCLA FORO PRPC NCLA NCLA NCLA NCLA NCLA NCLA NCLA NCLA NCLA NCLA NCLA NCLA NCLA NCLA

> <cluster_id>
1

> <rmsd_to_cluster_rep>
0.00    

> <ligRMSD>
5.38    

> <ligCOMD>
0.87    

$$$$
jnk1_abbott_57_41_325
     RDKit          3D

 37 37  0  0  0  0  0  0  0  0999 V2000
   18.7827   61.6216    8.7867 C   0  0  0  0  0  0  0  0  0  0  0  0
   19.0714   63.1259    8.7589 C   0  0  0  0  0  0  0  0  0  0  0  0
   18.7793   63.6596   10.0439 O   0  0  0  0  0  0  0  0  0  0  0  0
   19.1829   64.9877   10.2984 C   0  0  0  0  0  0  0  0  0  0  0  0
   19.7679   65.7011    9.3369 N   0  0  0  0  0  0  0  0  0  0  0  0
   20.1881   66.9615    9.5187 C   0  0  0  0  0  0  0  0  0  0  0  0
   19.9622   67.6128   10.7540 C   0  0  0  0  0  0  0  0  0  0  0  0
   19.3405   66.8756   11.7877 C   0  0  0  0  0  0  0  0  0  0  0  0
   19.1080   67.4875   13.0264 N   0  0  0  0  0  0  0  0  0  0  0  0
   18.9533   65.5393   11.5667 C   0  0  0  0  0  0  0  0  0  0  0  0
   20.7823   67.5371    8.3459 N   0  0  0  0  0  0  0  0  0  0  0  0
   21.8010   68.4273    8.1921 C   0  0  0  0  0  0  0  0  0  0  0  0
   22.4935   68.8866    9.0915 O   0  0  0  0  0  0  0  0  0  0  0  0
   22.1064   68.8554    6.7967 C   0  0  0  0  0  0  0  0  0  0  0  0
   22.5045   67.6355    5.9528 C   0  0  0  0  0  0  0  0  0  0  0  0
   22.7655   68.0170    4.4898 C   0  0  0  0  0  0  0  0  0  0  0  0
   23.1788   66.8370    3.6098 C   0  0  0  0  0  0  0  0  0  0  0  0
   18.3334   64.7293   12.5902 C   0  0  0  0  0  0  0  0  0  0  0  0
   17.8338   64.0813   13.4397 N   0  0  0  0  0  0  0  0  0  0  0  0
   18.9998   61.1658    7.7975 H   0  0  0  0  0  0  0  0  0  0  0  0
   17.7153   61.4367    9.0344 H   0  0  0  0  0  0  0  0  0  0  0  0
   19.4129   61.1206    9.5526 H   0  0  0  0  0  0  0  0  0  0  0  0
   18.4323   63.6113    7.9877 H   0  0  0  0  0  0  0  0  0  0  0  0
   20.1435   63.2912    8.5086 H   0  0  0  0  0  0  0  0  0  0  0  0
   20.3090   69.2952   11.0779 Cl  0  0  0  0  0  0  0  0  0  0  0  0
   18.9993   66.8222   13.7650 H   0  0  0  0  0  0  0  0  0  0  0  0
   19.6770   68.3007   13.1529 H   0  0  0  0  0  0  0  0  0  0  0  0
   20.3504   67.1804    7.5233 H   0  0  0  0  0  0  0  0  0  0  0  0
   22.9227   69.6096    6.7943 H   0  0  0  0  0  0  0  0  0  0  0  0
   21.1970   69.3236    6.3553 H   0  0  0  0  0  0  0  0  0  0  0  0
   21.6957   66.8697    5.9746 H   0  0  0  0  0  0  0  0  0  0  0  0
   23.4279   67.1733    6.3692 H   0  0  0  0  0  0  0  0  0  0  0  0
   23.5703   68.7856    4.4610 H   0  0  0  0  0  0  0  0  0  0  0  0
   21.8435   68.4789    4.0704 H   0  0  0  0  0  0  0  0  0  0  0  0
   24.1125   66.3751    3.9962 H   0  0  0  0  0  0  0  0  0  0  0  0
   23.3582   67.1761    2.5671 H   0  0  0  0  0  0  0  0  0  0  0  0
   22.3810   66.0640    3.5980 H   0  0  0  0  0  0  0  0  0  0  0  0
  1  2  1  0
  1 20  1  0
  1 21  1  0
  1 22  1  0
  2  3  1  0
  2 23  1  0
  2 24  1  0
  3  4  1  0
  4  5  2  0
  4 10  1  0
  5  6  1  0
  6  7  2  0
  6 11  1  0
  7  8  1  0
  7 25  1  0
  8  9  1  0
  8 10  2  0
  9 26  1  0
  9 27  1  0
 10 18  1  0
 11 12  1  0
 11 28  1  0
 12 13  2  0
 12 14  1  0
 14 15  1  0
 14 29  1  0
 14 30  1  0
 15 16  1  0
 15 31  1  0
 15 32  1  0
 16 17  1  0
 16 33  1  0
 16 34  1  0
 17 35  1  0
 17 36  1  0
 17 37  1  0
 18 19  3  0
M  END
> <intraLJ>
14.054    

> <intraEL>
-13.211   

> <intraDihe>
8.892     

> <interLJ>
0.000     

> <interEJ>
0.000     

> <gridLJ>
-7.457    

> <gridEL>
0.000     

> <totalE>
2.278     

> <LGFE>
-7.457  

> <LE>
-0.373  

> <SMILES>
CCCCC(=O)Nc1nc(OCC)c(C#N)c(N)c1Cl

> <atom.dprop.GFE>
-0.4622 -0.4948 -0.1310 0.0047 -0.4020 -0.4116 -0.3392 -0.2406 -0.3900 -0.1528 -0.7360 0.0000 -0.9210 -0.3596 -0.5701 -0.4312 -0.1851 0.0000 0.0000 0.0000 0.0000 0.0000 0.0000 0.0000 -1.2340 0.0000 0.0000 0.0000 0.0000 0.0000 0.0000 0.0000 0.0000 0.0000 0.0000 0.0000 0.0000

> <atom.prop.CLASS>
PRPC PRPC DMEO GEHC IMIN GEHC BENC BENC FORN BENC FORN NCLA FORO PRPC PRPC PRPC PRPC NCLA NCLA NCLA NCLA NCLA NCLA NCLA CLBX NCLA NCLA NCLA NCLA NCLA NCLA NCLA NCLA NCLA NCLA NCLA NCLA

> <cluster_id>
1

> <rmsd_to_cluster_rep>
0.00    

> <ligRMSD>
1.50    

> <ligCOMD>
1.10    

$$$$
jnk1_abbott_58_42.X_524
     RDKit          3D

 40 40  0  0  0  0  0  0  0  0999 V2000
   20.4170   69.2269   12.8877 C   0  0  0  0  0  0  0  0  0  0  0  0
   20.3631   68.0421   11.9186 C   0  0  0  0  0  0  0  0  0  0  0  0
   20.8757   68.5146   10.6820 O   0  0  0  0  0  0  0  0  0  0  0  0
   21.0049   67.6028    9.6189 C   0  0  0  0  0  0  0  0  0  0  0  0
   20.6466   66.3295    9.7856 N   0  0  0  0  0  0  0  0  0  0  0  0
   20.7108   65.4356    8.7891 C   0  0  0  0  0  0  0  0  0  0  0  0
   21.2802   65.8030    7.5590 C   0  0  0  0  0  0  0  0  0  0  0  0
   21.6709   67.1282    7.3492 C   0  0  0  0  0  0  0  0  0  0  0  0
   22.2163   67.4699    6.1099 N   0  0  0  0  0  0  0  0  0  0  0  0
   21.5433   68.0568    8.4015 C   0  0  0  0  0  0  0  0  0  0  0  0
   20.4050   64.0827    9.0669 N   0  0  0  0  0  0  0  0  0  0  0  0
   19.5161   63.4373    8.2430 C   0  0  0  0  0  0  0  0  0  0  0  0
   19.0540   63.9410    7.2178 O   0  0  0  0  0  0  0  0  0  0  0  0
   19.0930   62.0436    8.6208 C   0  0  0  0  0  0  0  0  0  0  0  0
   20.7671   63.5502   10.3746 C   0  0  0  0  0  0  0  0  0  0  0  0
   18.1766   61.4236    7.5438 C   0  0  0  0  0  0  0  0  0  0  0  0
   17.7848   59.9678    7.8522 C   0  0  0  0  0  0  0  0  0  0  0  0
   16.9686   59.7816    9.1352 C   0  0  0  0  0  0  0  0  0  0  0  0
   21.9698   69.4288    8.2730 C   0  0  0  0  0  0  0  0  0  0  0  0
   22.3267   70.5458    8.1477 N   0  0  0  0  0  0  0  0  0  0  0  0
   20.0259   68.9355   13.8850 H   0  0  0  0  0  0  0  0  0  0  0  0
   19.8056   70.0707   12.5008 H   0  0  0  0  0  0  0  0  0  0  0  0
   21.4639   69.5803   13.0076 H   0  0  0  0  0  0  0  0  0  0  0  0
   19.3110   67.7001   11.7984 H   0  0  0  0  0  0  0  0  0  0  0  0
   20.9877   67.2063   12.3048 H   0  0  0  0  0  0  0  0  0  0  0  0
   21.3930   65.0633    6.7797 H   0  0  0  0  0  0  0  0  0  0  0  0
   22.2253   68.4556    5.9406 H   0  0  0  0  0  0  0  0  0  0  0  0
   21.9983   66.8115    5.3898 H   0  0  0  0  0  0  0  0  0  0  0  0
   18.5454   62.0742    9.5872 H   0  0  0  0  0  0  0  0  0  0  0  0
   19.9928   61.3998    8.7332 H   0  0  0  0  0  0  0  0  0  0  0  0
   21.6090   64.1439   10.7958 H   0  0  0  0  0  0  0  0  0  0  0  0
   21.1012   62.4973   10.2503 H   0  0  0  0  0  0  0  0  0  0  0  0
   19.8741   63.6173   11.0330 H   0  0  0  0  0  0  0  0  0  0  0  0
   18.6998   61.4327    6.5605 H   0  0  0  0  0  0  0  0  0  0  0  0
   17.2437   62.0227    7.4444 H   0  0  0  0  0  0  0  0  0  0  0  0
   18.7111   59.3543    7.9167 H   0  0  0  0  0  0  0  0  0  0  0  0
   17.1869   59.5807    6.9961 H   0  0  0  0  0  0  0  0  0  0  0  0
   17.5555   60.0890   10.0260 H   0  0  0  0  0  0  0  0  0  0  0  0
   16.6828   58.7150    9.2579 H   0  0  0  0  0  0  0  0  0  0  0  0
   16.0411   60.3918    9.0940 H   0  0  0  0  0  0  0  0  0  0  0  0
  1  2  1  0
  1 21  1  0
  1 22  1  0
  1 23  1  0
  2  3  1  0
  2 24  1  0
  2 25  1  0
  3  4  1  0
  4  5  2  0
  4 10  1  0
  5  6  1  0
  6  7  2  0
  6 11  1  0
  7  8  1  0
  7 26  1  0
  8  9  1  0
  8 10  2  0
  9 27  1  0
  9 28  1  0
 10 19  1  0
 11 12  1  0
 11 15  1  0
 12 13  2  0
 12 14  1  0
 14 16  1  0
 14 29  1  0
 14 30  1  0
 15 31  1  0
 15 32  1  0
 15 33  1  0
 16 17  1  0
 16 34  1  0
 16 35  1  0
 17 18  1  0
 17 36  1  0
 17 37  1  0
 18 38  1  0
 18 39  1  0
 18 40  1  0
 19 20  3  0
M  END
> <intraLJ>
17.318    

> <intraEL>
-14.879   

> <intraDihe>
12.610    

> <interLJ>
0.000     

> <interEJ>
0.000     

> <gridLJ>
-6.655    

> <gridEL>
0.000     

> <totalE>
8.393     

> <LGFE>
-6.655  

> <LE>
-0.333  

> <SMILES>
CCCCC(=O)N(C)c1cc(N)c(C#N)c(OCC)n1

> <atom.dprop.GFE>
0.1445 -0.6810 -1.7740 -0.4316 -0.4670 -0.0576 -0.2129 -0.2568 -1.3040 -0.3201 -0.1665 0.0000 -0.1450 -0.4622 0.1235 -0.3986 -0.2248 -0.0210 0.0000 0.0000 0.0000 0.0000 0.0000 0.0000 0.0000 0.0000 0.0000 0.0000 0.0000 0.0000 0.0000 0.0000 0.0000 0.0000 0.0000 0.0000 0.0000 0.0000 0.0000 0.0000

> <atom.prop.CLASS>
PRPC PRPC DMEO GEHC IMIN GEHC BENC BENC FORN BENC GEHC NCLA FORO PRPC PRPC PRPC PRPC PRPC NCLA NCLA NCLA NCLA NCLA NCLA NCLA NCLA NCLA NCLA NCLA NCLA NCLA NCLA NCLA NCLA NCLA NCLA NCLA NCLA NCLA NCLA

> <cluster_id>
1

> <rmsd_to_cluster_rep>
0.00    

> <ligRMSD>
7.05    

> <ligCOMD>
1.13    

$$$$
jnk1_abbott_59_35_270
     RDKit          3D

 51 52  0  0  0  0  0  0  0  0999 V2000
   19.6013   63.3079    6.2209 C   0  0  0  0  0  0  0  0  0  0  0  0
   20.4946   62.8075    7.3581 C   0  0  0  0  0  0  0  0  0  0  0  0
   19.8520   62.9902    8.6187 O   0  0  0  0  0  0  0  0  0  0  0  0
   19.9264   64.2600    9.2296 C   0  0  0  0  0  0  0  0  0  0  0  0
   20.6200   65.2354    8.6507 N   0  0  0  0  0  0  0  0  0  0  0  0
   20.7487   66.4373    9.2157 C   0  0  0  0  0  0  0  0  0  0  0  0
   20.1302   66.7434   10.4302 C   0  0  0  0  0  0  0  0  0  0  0  0
   19.3831   65.7370   11.0626 C   0  0  0  0  0  0  0  0  0  0  0  0
   18.7651   66.0126   12.2805 N   0  0  0  0  0  0  0  0  0  0  0  0
   19.2775   64.4700   10.4587 C   0  0  0  0  0  0  0  0  0  0  0  0
   18.3711   63.1820   11.2045 Cl  0  0  0  0  0  0  0  0  0  0  0  0
   21.5619   67.3351    8.4770 N   0  0  0  0  0  0  0  0  0  0  0  0
   21.8449   68.6399    8.6829 C   0  0  0  0  0  0  0  0  0  0  0  0
   21.4127   69.3073    9.6190 O   0  0  0  0  0  0  0  0  0  0  0  0
   22.7475   69.2620    7.6609 C   0  0  0  0  0  0  0  0  0  0  0  0
   22.0818   69.2252    6.2973 C   0  0  0  0  0  0  0  0  0  0  0  0
   22.0934   68.0486    5.5217 C   0  0  0  0  0  0  0  0  0  0  0  0
   22.7647   66.9156    6.0454 O   0  0  0  0  0  0  0  0  0  0  0  0
   22.7148   65.7020    5.3027 C   0  0  0  0  0  0  0  0  0  0  0  0
   21.4364   68.0407    4.2751 C   0  0  0  0  0  0  0  0  0  0  0  0
   20.7736   69.1887    3.7916 C   0  0  0  0  0  0  0  0  0  0  0  0
   19.9663   69.1552    2.1981 S   0  0  0  0  0  0  0  0  0  0  0  0
   18.6228   69.6253    2.4218 O   0  0  0  0  0  0  0  0  0  0  0  0
   20.2132   67.8534    1.6332 O   0  0  0  0  0  0  0  0  0  0  0  0
   20.8695   70.3647    1.2300 C   0  0  0  0  0  0  0  0  0  0  0  0
   20.7500   70.3597    4.5865 C   0  0  0  0  0  0  0  0  0  0  0  0
   21.4078   70.3644    5.8329 C   0  0  0  0  0  0  0  0  0  0  0  0
   20.1016   71.5077    4.0778 O   0  0  0  0  0  0  0  0  0  0  0  0
   20.0482   72.6729    4.8921 C   0  0  0  0  0  0  0  0  0  0  0  0
   20.0633   63.0822    5.2365 H   0  0  0  0  0  0  0  0  0  0  0  0
   19.4528   64.4060    6.2983 H   0  0  0  0  0  0  0  0  0  0  0  0
   18.6069   62.8140    6.2661 H   0  0  0  0  0  0  0  0  0  0  0  0
   21.5018   63.2775    7.3157 H   0  0  0  0  0  0  0  0  0  0  0  0
   20.6448   61.7123    7.2286 H   0  0  0  0  0  0  0  0  0  0  0  0
   20.2148   67.7143   10.8883 H   0  0  0  0  0  0  0  0  0  0  0  0
   18.2468   65.2649   12.6963 H   0  0  0  0  0  0  0  0  0  0  0  0
   18.8904   66.9331   12.6504 H   0  0  0  0  0  0  0  0  0  0  0  0
   21.9620   66.8888    7.6797 H   0  0  0  0  0  0  0  0  0  0  0  0
   23.7120   68.7096    7.6118 H   0  0  0  0  0  0  0  0  0  0  0  0
   22.9653   70.3173    7.9388 H   0  0  0  0  0  0  0  0  0  0  0  0
   23.2368   64.9099    5.8817 H   0  0  0  0  0  0  0  0  0  0  0  0
   23.2306   65.8124    4.3245 H   0  0  0  0  0  0  0  0  0  0  0  0
   21.6617   65.3821    5.1445 H   0  0  0  0  0  0  0  0  0  0  0  0
   21.4407   67.1557    3.6593 H   0  0  0  0  0  0  0  0  0  0  0  0
   20.7416   71.3786    1.6619 H   0  0  0  0  0  0  0  0  0  0  0  0
   20.4748   70.3624    0.1920 H   0  0  0  0  0  0  0  0  0  0  0  0
   21.9472   70.0981    1.2145 H   0  0  0  0  0  0  0  0  0  0  0  0
   21.4233   71.2412    6.4613 H   0  0  0  0  0  0  0  0  0  0  0  0
   19.4570   73.4475    4.3577 H   0  0  0  0  0  0  0  0  0  0  0  0
   21.0643   73.0829    5.0768 H   0  0  0  0  0  0  0  0  0  0  0  0
   19.5431   72.4523    5.8579 H   0  0  0  0  0  0  0  0  0  0  0  0
  1  2  1  0
  1 30  1  0
  1 31  1  0
  1 32  1  0
  2  3  1  0
  2 33  1  0
  2 34  1  0
  3  4  1  0
  4  5  2  0
  4 10  1  0
  5  6  1  0
  6  7  2  0
  6 12  1  0
  7  8  1  0
  7 35  1  0
  8  9  1  0
  8 10  2  0
  9 36  1  0
  9 37  1  0
 10 11  1  0
 12 13  1  0
 12 38  1  0
 13 14  2  0
 13 15  1  0
 15 16  1  0
 15 39  1  0
 15 40  1  0
 16 17  2  0
 16 27  1  0
 17 18  1  0
 17 20  1  0
 18 19  1  0
 19 41  1  0
 19 42  1  0
 19 43  1  0
 20 21  2  0
 20 44  1  0
 21 22  1  0
 21 26  1  0
 22 23  2  0
 22 24  2  0
 22 25  1  0
 25 45  1  0
 25 46  1  0
 25 47  1  0
 26 27  2  0
 26 28  1  0
 27 48  1  0
 28 29  1  0
 29 49  1  0
 29 50  1  0
 29 51  1  0
M  END
> <intraLJ>
27.966    

> <intraEL>
-16.778   

> <intraDihe>
7.760     

> <interLJ>
0.000     

> <interEJ>
0.000     

> <gridLJ>
-10.644   

> <gridEL>
0.000     

> <totalE>
8.304     

> <LGFE>
-10.644 

> <LE>
-0.367  

> <SMILES>
CCOc1nc(NC(=O)Cc2cc(OC)c(S(C)(=O)=O)cc2OC)cc(N)c1Cl

> <atom.dprop.GFE>
-0.3946 -0.5395 -1.2840 -0.0559 -0.3510 -0.4116 -0.2640 -0.2896 0.3800 -0.1354 -0.9840 -0.7360 0.0000 -1.2440 -0.2687 -0.0885 -0.2016 -1.8700 -0.3720 -0.1331 -0.0648 0.0000 0.0940 0.1930 -0.0266 -0.1039 0.1204 -1.3490 -0.2637 0.0000 0.0000 0.0000 0.0000 0.0000 0.0000 0.0000 0.0000 0.0000 0.0000 0.0000 0.0000 0.0000 0.0000 0.0000 0.0000 0.0000 0.0000 0.0000 0.0000 0.0000 0.0000

> <atom.prop.CLASS>
PRPC PRPC DMEO GEHC IMIN GEHC BENC BENC FORN BENC CLBX FORN NCLA FORO PRPC BENC BENC DMEO PRPC BENC BENC NCLA FORO FORO PRPC BENC BENC DMEO PRPC NCLA NCLA NCLA NCLA NCLA NCLA NCLA NCLA NCLA NCLA NCLA NCLA NCLA NCLA NCLA NCLA NCLA NCLA NCLA NCLA NCLA NCLA

> <cluster_id>
1

> <rmsd_to_cluster_rep>
0.00    

> <ligRMSD>
1.34    

> <ligCOMD>
0.98    

$$$$
