cdk2_hardcastle_01
  MOE2024           3D

 35 37  0  0  0  0  0  0  0  0999 V2000
   -7.5390   22.7200  -23.9160 N   0  0  0  0  0  0  0  0  0  0  0  0
   -8.6260   23.3150  -24.4550 C   0  0  0  0  0  0  0  0  0  0  0  0
   -8.4539   24.3426  -25.2974 N   0  0  0  0  0  0  0  0  0  0  0  0
   -9.2522   24.4784  -25.9240 H   0  0  0  0  0  0  0  0  0  0  0  0
   -7.5178   24.3540  -25.7122 H   0  0  0  0  0  0  0  0  0  0  0  0
   -9.8770   22.8680  -24.1600 N   0  0  0  0  0  0  0  0  0  0  0  0
  -10.0420   21.8210  -23.3210 C   0  0  0  0  0  0  0  0  0  0  0  0
   -8.9440   21.1630  -22.7090 C   0  0  0  0  0  0  0  0  0  0  0  0
   -7.6210   21.6980  -23.0610 C   0  0  0  0  0  0  0  0  0  0  0  0
   -6.5050   21.1430  -22.5290 O   0  0  0  0  0  0  0  0  0  0  0  0
   -9.4180   20.1500  -21.8860 N   0  0  0  0  0  0  0  0  0  0  0  0
  -10.7750   20.2390  -22.0430 C   0  0  0  0  0  0  0  0  0  0  0  0
  -11.4594   19.5781  -21.5319 H   0  0  0  0  0  0  0  0  0  0  0  0
  -11.2090   21.2310  -22.8990 N   0  0  0  0  0  0  0  0  0  0  0  0
  -12.1574   21.4668  -23.1541 H   0  0  0  0  0  0  0  0  0  0  0  0
   -5.2040   21.6960  -22.7620 C   0  0  0  0  0  0  0  0  0  0  0  0
   -5.2486   22.7846  -22.7309 H   0  0  0  0  0  0  0  0  0  0  0  0
   -4.8292   21.3754  -23.7340 H   0  0  0  0  0  0  0  0  0  0  0  0
   -4.2940   21.1760  -21.6510 C   0  0  0  0  0  0  0  0  0  0  0  0
   -4.4098   20.1012  -21.5110 H   0  0  0  0  0  0  0  0  0  0  0  0
   -2.8370   21.3960  -22.0290 C   0  0  0  0  0  0  0  0  0  0  0  0
   -2.6858   22.4409  -22.3001 H   0  0  0  0  0  0  0  0  0  0  0  0
   -2.5816   20.7601  -22.8767 H   0  0  0  0  0  0  0  0  0  0  0  0
   -1.9540   21.0480  -20.8550 C   0  0  0  0  0  0  0  0  0  0  0  0
   -0.9067   21.1716  -21.1308 H   0  0  0  0  0  0  0  0  0  0  0  0
   -2.1307   20.0158  -20.5528 H   0  0  0  0  0  0  0  0  0  0  0  0
   -2.3000   21.9870  -19.7100 C   0  0  0  0  0  0  0  0  0  0  0  0
   -2.2689   23.0192  -20.0588 H   0  0  0  0  0  0  0  0  0  0  0  0
   -1.5845   21.8561  -18.8982 H   0  0  0  0  0  0  0  0  0  0  0  0
   -3.7020   21.6530  -19.2180 C   0  0  0  0  0  0  0  0  0  0  0  0
   -3.9603   22.3050  -18.3836 H   0  0  0  0  0  0  0  0  0  0  0  0
   -3.7355   20.6138  -18.8910 H   0  0  0  0  0  0  0  0  0  0  0  0
   -4.6920   21.8610  -20.3500 C   0  0  0  0  0  0  0  0  0  0  0  0
   -5.6591   21.4677  -20.0369 H   0  0  0  0  0  0  0  0  0  0  0  0
   -4.7786   22.9312  -20.5380 H   0  0  0  0  0  0  0  0  0  0  0  0
  1  2  1  0  0  0  0
  1  9  2  0  0  0  0
  2  3  1  0  0  0  0
  2  6  2  0  0  0  0
  3  4  1  0  0  0  0
  3  5  1  0  0  0  0
  6  7  1  0  0  0  0
  7  8  2  0  0  0  0
  7 14  1  0  0  0  0
  8  9  1  0  0  0  0
  8 11  1  0  0  0  0
  9 10  1  0  0  0  0
 10 16  1  0  0  0  0
 11 12  2  0  0  0  0
 12 13  1  0  0  0  0
 12 14  1  0  0  0  0
 14 15  1  0  0  0  0
 16 17  1  0  0  0  0
 16 18  1  0  0  0  0
 16 19  1  0  0  0  0
 19 20  1  0  0  0  0
 19 21  1  0  0  0  0
 19 33  1  0  0  0  0
 21 22  1  0  0  0  0
 21 23  1  0  0  0  0
 21 24  1  0  0  0  0
 24 25  1  0  0  0  0
 24 26  1  0  0  0  0
 24 27  1  0  0  0  0
 27 28  1  0  0  0  0
 27 29  1  0  0  0  0
 27 30  1  0  0  0  0
 30 31  1  0  0  0  0
 30 32  1  0  0  0  0
 30 33  1  0  0  0  0
 33 34  1  0  0  0  0
 33 35  1  0  0  0  0
M  END
$$$$
cdk2_hardcastle_02_1h1q
  MOE2024           3D

 45 48  0  0  0  0  0  0  0  0999 V2000
   -7.2150   22.3580  -23.6970 N   0  0  0  0  0  0  0  0  0  0  0  0
   -8.1800   23.1100  -24.4970 C   0  0  0  0  0  0  0  0  0  0  0  0
   -7.9760   24.0340  -25.3850 N   0  0  0  0  0  0  0  0  0  0  0  0
   -8.6673   24.2119  -26.0995 H   0  0  0  0  0  0  0  0  0  0  0  0
   -9.4160   22.8730  -24.3210 N   0  0  0  0  0  0  0  0  0  0  0  0
   -9.8710   21.8920  -23.3930 C   0  0  0  0  0  0  0  0  0  0  0  0
   -8.9840   21.2120  -22.6560 C   0  0  0  0  0  0  0  0  0  0  0  0
   -7.5660   21.4750  -22.8220 C   0  0  0  0  0  0  0  0  0  0  0  0
   -6.6370   20.8190  -22.1080 O   0  0  0  0  0  0  0  0  0  0  0  0
   -9.8590   20.3850  -21.8740 N   0  0  0  0  0  0  0  0  0  0  0  0
  -11.0540   20.6530  -22.1970 C   0  0  0  0  0  0  0  0  0  0  0  0
  -11.9220   20.1821  -21.7597 H   0  0  0  0  0  0  0  0  0  0  0  0
  -11.1050   21.5740  -23.1290 N   0  0  0  0  0  0  0  0  0  0  0  0
  -11.9352   21.9592  -23.5562 H   0  0  0  0  0  0  0  0  0  0  0  0
   -5.4480   21.6380  -22.2430 C   0  0  0  0  0  0  0  0  0  0  0  0
   -5.7121   22.6889  -22.1251 H   0  0  0  0  0  0  0  0  0  0  0  0
   -5.0064   21.4826  -23.2273 H   0  0  0  0  0  0  0  0  0  0  0  0
   -4.4320   21.2310  -21.1470 C   0  0  0  0  0  0  0  0  0  0  0  0
   -4.7214   20.3247  -20.6150 H   0  0  0  0  0  0  0  0  0  0  0  0
   -3.0860   20.9790  -21.8580 C   0  0  0  0  0  0  0  0  0  0  0  0
   -2.9192   21.7839  -22.5739 H   0  0  0  0  0  0  0  0  0  0  0  0
   -3.1497   20.0287  -22.3881 H   0  0  0  0  0  0  0  0  0  0  0  0
   -1.8810   20.9220  -20.9020 C   0  0  0  0  0  0  0  0  0  0  0  0
   -0.9734   20.9388  -21.5055 H   0  0  0  0  0  0  0  0  0  0  0  0
   -1.9340   19.9826  -20.3517 H   0  0  0  0  0  0  0  0  0  0  0  0
   -1.7890   22.0640  -19.8790 C   0  0  0  0  0  0  0  0  0  0  0  0
   -1.5148   22.9824  -20.3981 H   0  0  0  0  0  0  0  0  0  0  0  0
   -1.0221   21.8193  -19.1441 H   0  0  0  0  0  0  0  0  0  0  0  0
   -3.1330   22.2840  -19.1470 C   0  0  0  0  0  0  0  0  0  0  0  0
   -3.0667   23.2143  -18.5829 H   0  0  0  0  0  0  0  0  0  0  0  0
   -3.2879   21.4525  -18.4595 H   0  0  0  0  0  0  0  0  0  0  0  0
   -4.3560   22.3720  -20.0830 C   0  0  0  0  0  0  0  0  0  0  0  0
   -5.2577   22.3301  -19.4720 H   0  0  0  0  0  0  0  0  0  0  0  0
   -4.3167   23.3266  -20.6078 H   0  0  0  0  0  0  0  0  0  0  0  0
   -6.8340   24.7580  -25.3500 C   0  0  0  0  0  0  0  0  0  0  0  0
   -6.2510   25.1720  -26.5440 C   0  0  0  0  0  0  0  0  0  0  0  0
   -6.7218   24.9144  -27.4812 H   0  0  0  0  0  0  0  0  0  0  0  0
   -5.0770   25.9090  -26.5520 C   0  0  0  0  0  0  0  0  0  0  0  0
   -4.6376   26.2384  -27.4820 H   0  0  0  0  0  0  0  0  0  0  0  0
   -4.4750   26.2160  -25.3280 C   0  0  0  0  0  0  0  0  0  0  0  0
   -3.5591   26.7878  -25.3063 H   0  0  0  0  0  0  0  0  0  0  0  0
   -5.0540   25.7860  -24.1370 C   0  0  0  0  0  0  0  0  0  0  0  0
   -4.5677   26.0141  -23.2000 H   0  0  0  0  0  0  0  0  0  0  0  0
   -6.2470   25.0680  -24.1290 C   0  0  0  0  0  0  0  0  0  0  0  0
   -6.7035   24.7605  -23.1998 H   0  0  0  0  0  0  0  0  0  0  0  0
  1  2  1  0  0  0  0
  1  8  2  0  0  0  0
  2  3  1  0  0  0  0
  2  5  2  0  0  0  0
  3  4  1  0  0  0  0
  3 35  1  0  0  0  0
  5  6  1  0  0  0  0
  6  7  2  0  0  0  0
  6 13  1  0  0  0  0
  7  8  1  0  0  0  0
  7 10  1  0  0  0  0
  8  9  1  0  0  0  0
  9 15  1  0  0  0  0
 10 11  2  0  0  0  0
 11 12  1  0  0  0  0
 11 13  1  0  0  0  0
 13 14  1  0  0  0  0
 15 16  1  0  0  0  0
 15 17  1  0  0  0  0
 15 18  1  0  0  0  0
 18 19  1  0  0  0  0
 18 20  1  0  0  0  0
 18 32  1  0  0  0  0
 20 21  1  0  0  0  0
 20 22  1  0  0  0  0
 20 23  1  0  0  0  0
 23 24  1  0  0  0  0
 23 25  1  0  0  0  0
 23 26  1  0  0  0  0
 26 27  1  0  0  0  0
 26 28  1  0  0  0  0
 26 29  1  0  0  0  0
 29 30  1  0  0  0  0
 29 31  1  0  0  0  0
 29 32  1  0  0  0  0
 32 33  1  0  0  0  0
 32 34  1  0  0  0  0
 35 36  1  0  0  0  0
 35 44  2  0  0  0  0
 36 37  1  0  0  0  0
 36 38  2  0  0  0  0
 38 39  1  0  0  0  0
 38 40  1  0  0  0  0
 40 41  1  0  0  0  0
 40 42  2  0  0  0  0
 42 43  1  0  0  0  0
 42 44  1  0  0  0  0
 44 45  1  0  0  0  0
M  END
$$$$
cdk2_hardcastle_03_1h1s
  MOE2024           3D

 50 53  0  0  0  0  0  0  0  0999 V2000
   -6.9620   22.3810  -23.4590 N   0  0  0  0  0  0  0  0  0  0  0  0
   -7.9620   23.0270  -24.2800 C   0  0  0  0  0  0  0  0  0  0  0  0
   -7.6120   23.9890  -25.0910 N   0  0  0  0  0  0  0  0  0  0  0  0
   -8.2619   24.2671  -25.8123 H   0  0  0  0  0  0  0  0  0  0  0  0
   -9.1870   22.7450  -24.0720 N   0  0  0  0  0  0  0  0  0  0  0  0
   -9.6560   21.7480  -23.2030 C   0  0  0  0  0  0  0  0  0  0  0  0
   -8.7510   21.1290  -22.4550 C   0  0  0  0  0  0  0  0  0  0  0  0
   -7.3710   21.4500  -22.6270 C   0  0  0  0  0  0  0  0  0  0  0  0
   -6.5350   20.7230  -21.8980 O   0  0  0  0  0  0  0  0  0  0  0  0
   -9.5040   20.1740  -21.7160 N   0  0  0  0  0  0  0  0  0  0  0  0
  -10.7500   20.3800  -22.0510 C   0  0  0  0  0  0  0  0  0  0  0  0
  -11.5831   19.8340  -21.6335 H   0  0  0  0  0  0  0  0  0  0  0  0
  -10.8760   21.3390  -22.9650 N   0  0  0  0  0  0  0  0  0  0  0  0
  -11.7297   21.6782  -23.3847 H   0  0  0  0  0  0  0  0  0  0  0  0
   -5.1840   21.2170  -22.2630 C   0  0  0  0  0  0  0  0  0  0  0  0
   -5.2193   22.2908  -22.4468 H   0  0  0  0  0  0  0  0  0  0  0  0
   -4.8325   20.7063  -23.1595 H   0  0  0  0  0  0  0  0  0  0  0  0
   -4.2270   20.9150  -21.0720 C   0  0  0  0  0  0  0  0  0  0  0  0
   -4.3808   19.8455  -20.9288 H   0  0  0  0  0  0  0  0  0  0  0  0
   -4.5950   21.5810  -19.7170 C   0  0  0  0  0  0  0  0  0  0  0  0
   -5.6119   21.2801  -19.4651 H   0  0  0  0  0  0  0  0  0  0  0  0
   -4.5602   22.6612  -19.8583 H   0  0  0  0  0  0  0  0  0  0  0  0
   -3.7030   21.2400  -18.5290 C   0  0  0  0  0  0  0  0  0  0  0  0
   -3.8070   20.1801  -18.2970 H   0  0  0  0  0  0  0  0  0  0  0  0
   -4.0129   21.8324  -17.6681 H   0  0  0  0  0  0  0  0  0  0  0  0
   -2.1620   21.5580  -18.8600 C   0  0  0  0  0  0  0  0  0  0  0  0
   -1.5240   21.1912  -18.0559 H   0  0  0  0  0  0  0  0  0  0  0  0
   -2.0190   22.6324  -18.9759 H   0  0  0  0  0  0  0  0  0  0  0  0
   -1.8230   20.8420  -20.1640 C   0  0  0  0  0  0  0  0  0  0  0  0
   -1.8812   19.7696  -19.9779 H   0  0  0  0  0  0  0  0  0  0  0  0
   -0.8010   21.1092  -20.4326 H   0  0  0  0  0  0  0  0  0  0  0  0
   -2.7410   21.1630  -21.3990 C   0  0  0  0  0  0  0  0  0  0  0  0
   -2.6085   22.2084  -21.6777 H   0  0  0  0  0  0  0  0  0  0  0  0
   -2.4497   20.5248  -22.2333 H   0  0  0  0  0  0  0  0  0  0  0  0
   -6.4030   24.6440  -25.0140 C   0  0  0  0  0  0  0  0  0  0  0  0
   -5.9550   25.3120  -26.1760 C   0  0  0  0  0  0  0  0  0  0  0  0
   -6.5534   25.2388  -27.0721 H   0  0  0  0  0  0  0  0  0  0  0  0
   -4.7920   26.0530  -26.2240 C   0  0  0  0  0  0  0  0  0  0  0  0
   -4.5262   26.5610  -27.1392 H   0  0  0  0  0  0  0  0  0  0  0  0
   -3.9660   26.1580  -25.1330 C   0  0  0  0  0  0  0  0  0  0  0  0
   -4.3810   25.5050  -23.9140 C   0  0  0  0  0  0  0  0  0  0  0  0
   -3.7691   25.5576  -23.0256 H   0  0  0  0  0  0  0  0  0  0  0  0
   -5.5700   24.8150  -23.9060 C   0  0  0  0  0  0  0  0  0  0  0  0
   -5.8837   24.3717  -22.9725 H   0  0  0  0  0  0  0  0  0  0  0  0
   -2.5290   27.1400  -25.2000 S   0  0  0  0  0  0  0  0  0  0  0  0
   -2.8630   28.4350  -24.6250 O   0  0  0  0  0  0  0  0  0  0  0  0
   -1.9290   27.1700  -26.5290 O   0  0  0  0  0  0  0  0  0  0  0  0
   -1.4370   26.4830  -24.2600 N   0  0  0  0  0  0  0  0  0  0  0  0
   -1.7922   26.4319  -23.3159 H   0  0  0  0  0  0  0  0  0  0  0  0
   -0.5982   27.0454  -24.2741 H   0  0  0  0  0  0  0  0  0  0  0  0
  1  2  1  0  0  0  0
  1  8  2  0  0  0  0
  2  3  1  0  0  0  0
  2  5  2  0  0  0  0
  3  4  1  0  0  0  0
  3 35  1  0  0  0  0
  5  6  1  0  0  0  0
  6  7  2  0  0  0  0
  6 13  1  0  0  0  0
  7  8  1  0  0  0  0
  7 10  1  0  0  0  0
  8  9  1  0  0  0  0
  9 15  1  0  0  0  0
 10 11  2  0  0  0  0
 11 12  1  0  0  0  0
 11 13  1  0  0  0  0
 13 14  1  0  0  0  0
 15 16  1  0  0  0  0
 15 17  1  0  0  0  0
 15 18  1  0  0  0  0
 18 19  1  0  0  0  0
 18 20  1  0  0  0  0
 18 32  1  0  0  0  0
 20 21  1  0  0  0  0
 20 22  1  0  0  0  0
 20 23  1  0  0  0  0
 23 24  1  0  0  0  0
 23 25  1  0  0  0  0
 23 26  1  0  0  0  0
 26 27  1  0  0  0  0
 26 28  1  0  0  0  0
 26 29  1  0  0  0  0
 29 30  1  0  0  0  0
 29 31  1  0  0  0  0
 29 32  1  0  0  0  0
 32 33  1  0  0  0  0
 32 34  1  0  0  0  0
 35 36  1  0  0  0  0
 35 43  2  0  0  0  0
 36 37  1  0  0  0  0
 36 38  2  0  0  0  0
 38 39  1  0  0  0  0
 38 40  1  0  0  0  0
 40 41  2  0  0  0  0
 40 45  1  0  0  0  0
 41 42  1  0  0  0  0
 41 43  1  0  0  0  0
 43 44  1  0  0  0  0
 45 46  2  0  0  0  0
 45 47  2  0  0  0  0
 45 48  1  0  0  0  0
 48 49  1  0  0  0  0
 48 50  1  0  0  0  0
M  END
$$$$
cdk2_hardcastle_07
  MOE2024           3D

 38 40  0  0  0  0  0  0  0  0999 V2000
   -7.4490   22.7400  -23.7880 N   0  0  0  0  0  0  0  0  0  0  0  0
   -8.4740   23.3220  -24.4580 C   0  0  0  0  0  0  0  0  0  0  0  0
   -8.2553   24.3101  -25.3660 N   0  0  0  0  0  0  0  0  0  0  0  0
   -9.0814   24.4603  -25.9569 H   0  0  0  0  0  0  0  0  0  0  0  0
   -6.9354   24.4593  -25.9829 C   0  0  0  0  0  0  0  0  0  0  0  0
   -6.1916   24.5947  -25.1947 H   0  0  0  0  0  0  0  0  0  0  0  0
   -6.9515   25.3369  -26.6311 H   0  0  0  0  0  0  0  0  0  0  0  0
   -6.7138   23.5601  -26.5611 H   0  0  0  0  0  0  0  0  0  0  0  0
   -9.7630   22.9220  -24.2500 N   0  0  0  0  0  0  0  0  0  0  0  0
  -10.0310   21.9340  -23.3640 C   0  0  0  0  0  0  0  0  0  0  0  0
   -9.0050   21.3010  -22.6060 C   0  0  0  0  0  0  0  0  0  0  0  0
   -7.6350   21.7760  -22.8640 C   0  0  0  0  0  0  0  0  0  0  0  0
   -6.5880   21.2310  -22.1870 O   0  0  0  0  0  0  0  0  0  0  0  0
   -9.5850   20.3700  -21.7740 N   0  0  0  0  0  0  0  0  0  0  0  0
  -10.9280   20.4780  -22.0730 C   0  0  0  0  0  0  0  0  0  0  0  0
  -11.6750   19.8637  -21.5925 H   0  0  0  0  0  0  0  0  0  0  0  0
  -11.2540   21.4190  -23.0230 N   0  0  0  0  0  0  0  0  0  0  0  0
  -12.1658   21.6675  -23.3793 H   0  0  0  0  0  0  0  0  0  0  0  0
   -5.2310   21.6010  -22.4650 C   0  0  0  0  0  0  0  0  0  0  0  0
   -5.1417   22.6872  -22.4822 H   0  0  0  0  0  0  0  0  0  0  0  0
   -4.9296   21.1964  -23.4312 H   0  0  0  0  0  0  0  0  0  0  0  0
   -4.3410   21.0280  -21.3660 C   0  0  0  0  0  0  0  0  0  0  0  0
   -4.5111   19.9606  -21.2256 H   0  0  0  0  0  0  0  0  0  0  0  0
   -2.8760   21.2220  -21.7760 C   0  0  0  0  0  0  0  0  0  0  0  0
   -2.7393   22.2491  -22.1142 H   0  0  0  0  0  0  0  0  0  0  0  0
   -2.6464   20.5371  -22.5923 H   0  0  0  0  0  0  0  0  0  0  0  0
   -1.9130   20.9520  -20.6220 C   0  0  0  0  0  0  0  0  0  0  0  0
   -0.9007   21.2107  -20.9325 H   0  0  0  0  0  0  0  0  0  0  0  0
   -1.9540   19.8944  -20.3614 H   0  0  0  0  0  0  0  0  0  0  0  0
   -2.2900   21.7830  -19.4020 C   0  0  0  0  0  0  0  0  0  0  0  0
   -2.2769   22.8410  -19.6637 H   0  0  0  0  0  0  0  0  0  0  0  0
   -1.5735   21.6009  -18.5993 H   0  0  0  0  0  0  0  0  0  0  0  0
   -3.6890   21.3900  -18.9380 C   0  0  0  0  0  0  0  0  0  0  0  0
   -3.9462   21.9427  -18.0344 H   0  0  0  0  0  0  0  0  0  0  0  0
   -3.7215   20.3203  -18.7312 H   0  0  0  0  0  0  0  0  0  0  0  0
   -4.6760   21.7300  -20.0480 C   0  0  0  0  0  0  0  0  0  0  0  0
   -5.6742   21.4252  -19.7336 H   0  0  0  0  0  0  0  0  0  0  0  0
   -4.6599   22.8075  -20.2120 H   0  0  0  0  0  0  0  0  0  0  0  0
  1  2  1  0  0  0  0
  1 12  2  0  0  0  0
  2  3  1  0  0  0  0
  2  9  2  0  0  0  0
  3  4  1  0  0  0  0
  3  5  1  0  0  0  0
  5  6  1  0  0  0  0
  5  7  1  0  0  0  0
  5  8  1  0  0  0  0
  9 10  1  0  0  0  0
 10 11  2  0  0  0  0
 10 17  1  0  0  0  0
 11 12  1  0  0  0  0
 11 14  1  0  0  0  0
 12 13  1  0  0  0  0
 13 19  1  0  0  0  0
 14 15  2  0  0  0  0
 15 16  1  0  0  0  0
 15 17  1  0  0  0  0
 17 18  1  0  0  0  0
 19 20  1  0  0  0  0
 19 21  1  0  0  0  0
 19 22  1  0  0  0  0
 22 23  1  0  0  0  0
 22 24  1  0  0  0  0
 22 36  1  0  0  0  0
 24 25  1  0  0  0  0
 24 26  1  0  0  0  0
 24 27  1  0  0  0  0
 27 28  1  0  0  0  0
 27 29  1  0  0  0  0
 27 30  1  0  0  0  0
 30 31  1  0  0  0  0
 30 32  1  0  0  0  0
 30 33  1  0  0  0  0
 33 34  1  0  0  0  0
 33 35  1  0  0  0  0
 33 36  1  0  0  0  0
 36 37  1  0  0  0  0
 36 38  1  0  0  0  0
M  END
$$$$
cdk2_hardcastle_08
  MOE2024           3D

 41 43  0  0  0  0  0  0  0  0999 V2000
   -7.4490   22.7400  -23.7880 N   0  0  0  0  0  0  0  0  0  0  0  0
   -8.4740   23.3220  -24.4580 C   0  0  0  0  0  0  0  0  0  0  0  0
   -8.2550   24.3107  -25.3627 N   0  0  0  0  0  0  0  0  0  0  0  0
   -9.0722   24.4554  -25.9644 H   0  0  0  0  0  0  0  0  0  0  0  0
   -6.9463   24.4400  -25.9782 C   0  0  0  0  0  0  0  0  0  0  0  0
   -7.0815   25.6477  -26.8993 C   0  0  0  0  0  0  0  0  0  0  0  0
   -6.1262   25.8354  -27.3887 H   0  0  0  0  0  0  0  0  0  0  0  0
   -7.3607   26.5264  -26.3162 H   0  0  0  0  0  0  0  0  0  0  0  0
   -7.8391   25.4568  -27.6595 H   0  0  0  0  0  0  0  0  0  0  0  0
   -6.6947   23.5459  -26.5535 H   0  0  0  0  0  0  0  0  0  0  0  0
   -6.1795   24.6261  -25.2218 H   0  0  0  0  0  0  0  0  0  0  0  0
   -9.7630   22.9220  -24.2500 N   0  0  0  0  0  0  0  0  0  0  0  0
  -10.0310   21.9340  -23.3640 C   0  0  0  0  0  0  0  0  0  0  0  0
   -9.0050   21.3010  -22.6060 C   0  0  0  0  0  0  0  0  0  0  0  0
   -7.6350   21.7760  -22.8640 C   0  0  0  0  0  0  0  0  0  0  0  0
   -6.5880   21.2310  -22.1870 O   0  0  0  0  0  0  0  0  0  0  0  0
   -9.5850   20.3700  -21.7740 N   0  0  0  0  0  0  0  0  0  0  0  0
  -10.9280   20.4780  -22.0730 C   0  0  0  0  0  0  0  0  0  0  0  0
  -11.6750   19.8637  -21.5925 H   0  0  0  0  0  0  0  0  0  0  0  0
  -11.2540   21.4190  -23.0230 N   0  0  0  0  0  0  0  0  0  0  0  0
  -12.1658   21.6675  -23.3793 H   0  0  0  0  0  0  0  0  0  0  0  0
   -5.2310   21.6010  -22.4650 C   0  0  0  0  0  0  0  0  0  0  0  0
   -5.1417   22.6872  -22.4822 H   0  0  0  0  0  0  0  0  0  0  0  0
   -4.9296   21.1964  -23.4312 H   0  0  0  0  0  0  0  0  0  0  0  0
   -4.3410   21.0280  -21.3660 C   0  0  0  0  0  0  0  0  0  0  0  0
   -4.5111   19.9606  -21.2256 H   0  0  0  0  0  0  0  0  0  0  0  0
   -2.8760   21.2220  -21.7760 C   0  0  0  0  0  0  0  0  0  0  0  0
   -2.7393   22.2491  -22.1142 H   0  0  0  0  0  0  0  0  0  0  0  0
   -2.6464   20.5371  -22.5923 H   0  0  0  0  0  0  0  0  0  0  0  0
   -1.9130   20.9520  -20.6220 C   0  0  0  0  0  0  0  0  0  0  0  0
   -0.9007   21.2107  -20.9325 H   0  0  0  0  0  0  0  0  0  0  0  0
   -1.9540   19.8944  -20.3614 H   0  0  0  0  0  0  0  0  0  0  0  0
   -2.2900   21.7830  -19.4020 C   0  0  0  0  0  0  0  0  0  0  0  0
   -2.2769   22.8410  -19.6637 H   0  0  0  0  0  0  0  0  0  0  0  0
   -1.5736   21.6010  -18.5992 H   0  0  0  0  0  0  0  0  0  0  0  0
   -3.6890   21.3900  -18.9380 C   0  0  0  0  0  0  0  0  0  0  0  0
   -3.9462   21.9427  -18.0344 H   0  0  0  0  0  0  0  0  0  0  0  0
   -3.7215   20.3203  -18.7312 H   0  0  0  0  0  0  0  0  0  0  0  0
   -4.6760   21.7300  -20.0480 C   0  0  0  0  0  0  0  0  0  0  0  0
   -5.6742   21.4252  -19.7336 H   0  0  0  0  0  0  0  0  0  0  0  0
   -4.6599   22.8075  -20.2120 H   0  0  0  0  0  0  0  0  0  0  0  0
  1  2  1  0  0  0  0
  1 15  2  0  0  0  0
  2  3  1  0  0  0  0
  2 12  2  0  0  0  0
  3  4  1  0  0  0  0
  3  5  1  0  0  0  0
  5  6  1  0  0  0  0
  5 10  1  0  0  0  0
  5 11  1  0  0  0  0
  6  7  1  0  0  0  0
  6  8  1  0  0  0  0
  6  9  1  0  0  0  0
 12 13  1  0  0  0  0
 13 14  2  0  0  0  0
 13 20  1  0  0  0  0
 14 15  1  0  0  0  0
 14 17  1  0  0  0  0
 15 16  1  0  0  0  0
 16 22  1  0  0  0  0
 17 18  2  0  0  0  0
 18 19  1  0  0  0  0
 18 20  1  0  0  0  0
 20 21  1  0  0  0  0
 22 23  1  0  0  0  0
 22 24  1  0  0  0  0
 22 25  1  0  0  0  0
 25 26  1  0  0  0  0
 25 27  1  0  0  0  0
 25 39  1  0  0  0  0
 27 28  1  0  0  0  0
 27 29  1  0  0  0  0
 27 30  1  0  0  0  0
 30 31  1  0  0  0  0
 30 32  1  0  0  0  0
 30 33  1  0  0  0  0
 33 34  1  0  0  0  0
 33 35  1  0  0  0  0
 33 36  1  0  0  0  0
 36 37  1  0  0  0  0
 36 38  1  0  0  0  0
 36 39  1  0  0  0  0
 39 40  1  0  0  0  0
 39 41  1  0  0  0  0
M  END
$$$$
cdk2_hardcastle_09
  MOE2024           3D

 44 46  0  0  0  0  0  0  0  0999 V2000
   -7.4490   22.7400  -23.7880 N   0  0  0  0  0  0  0  0  0  0  0  0
   -8.4740   23.3220  -24.4580 C   0  0  0  0  0  0  0  0  0  0  0  0
   -8.2911   24.3169  -25.3705 N   0  0  0  0  0  0  0  0  0  0  0  0
   -9.1655   24.5024  -25.8711 H   0  0  0  0  0  0  0  0  0  0  0  0
   -7.0767   24.6214  -26.1158 C   0  0  0  0  0  0  0  0  0  0  0  0
   -6.0284   25.2026  -25.1674 C   0  0  0  0  0  0  0  0  0  0  0  0
   -5.1828   25.5718  -25.7459 H   0  0  0  0  0  0  0  0  0  0  0  0
   -5.6699   24.4468  -24.4718 H   0  0  0  0  0  0  0  0  0  0  0  0
   -6.4647   26.0283  -24.6055 H   0  0  0  0  0  0  0  0  0  0  0  0
   -7.2878   25.3848  -26.8687 H   0  0  0  0  0  0  0  0  0  0  0  0
   -6.6023   23.3664  -26.8493 C   0  0  0  0  0  0  0  0  0  0  0  0
   -5.7579   23.6194  -27.4893 H   0  0  0  0  0  0  0  0  0  0  0  0
   -7.4109   22.9731  -27.4648 H   0  0  0  0  0  0  0  0  0  0  0  0
   -6.2858   22.6018  -26.1412 H   0  0  0  0  0  0  0  0  0  0  0  0
   -9.7630   22.9220  -24.2500 N   0  0  0  0  0  0  0  0  0  0  0  0
  -10.0310   21.9340  -23.3640 C   0  0  0  0  0  0  0  0  0  0  0  0
   -9.0050   21.3010  -22.6060 C   0  0  0  0  0  0  0  0  0  0  0  0
   -7.6350   21.7760  -22.8640 C   0  0  0  0  0  0  0  0  0  0  0  0
   -6.5880   21.2310  -22.1870 O   0  0  0  0  0  0  0  0  0  0  0  0
   -9.5850   20.3700  -21.7740 N   0  0  0  0  0  0  0  0  0  0  0  0
  -10.9280   20.4780  -22.0730 C   0  0  0  0  0  0  0  0  0  0  0  0
  -11.6750   19.8637  -21.5925 H   0  0  0  0  0  0  0  0  0  0  0  0
  -11.2540   21.4190  -23.0230 N   0  0  0  0  0  0  0  0  0  0  0  0
  -12.1658   21.6675  -23.3793 H   0  0  0  0  0  0  0  0  0  0  0  0
   -5.2310   21.6010  -22.4650 C   0  0  0  0  0  0  0  0  0  0  0  0
   -5.1417   22.6872  -22.4822 H   0  0  0  0  0  0  0  0  0  0  0  0
   -4.9296   21.1964  -23.4312 H   0  0  0  0  0  0  0  0  0  0  0  0
   -4.3410   21.0280  -21.3660 C   0  0  0  0  0  0  0  0  0  0  0  0
   -4.5111   19.9606  -21.2256 H   0  0  0  0  0  0  0  0  0  0  0  0
   -2.8760   21.2220  -21.7760 C   0  0  0  0  0  0  0  0  0  0  0  0
   -2.7393   22.2491  -22.1142 H   0  0  0  0  0  0  0  0  0  0  0  0
   -2.6464   20.5371  -22.5923 H   0  0  0  0  0  0  0  0  0  0  0  0
   -1.9130   20.9520  -20.6220 C   0  0  0  0  0  0  0  0  0  0  0  0
   -0.9007   21.2107  -20.9325 H   0  0  0  0  0  0  0  0  0  0  0  0
   -1.9540   19.8944  -20.3614 H   0  0  0  0  0  0  0  0  0  0  0  0
   -2.2900   21.7830  -19.4020 C   0  0  0  0  0  0  0  0  0  0  0  0
   -2.2769   22.8410  -19.6637 H   0  0  0  0  0  0  0  0  0  0  0  0
   -1.5736   21.6009  -18.5992 H   0  0  0  0  0  0  0  0  0  0  0  0
   -3.6890   21.3900  -18.9380 C   0  0  0  0  0  0  0  0  0  0  0  0
   -3.9462   21.9427  -18.0344 H   0  0  0  0  0  0  0  0  0  0  0  0
   -3.7215   20.3203  -18.7312 H   0  0  0  0  0  0  0  0  0  0  0  0
   -4.6760   21.7300  -20.0480 C   0  0  0  0  0  0  0  0  0  0  0  0
   -5.6742   21.4252  -19.7336 H   0  0  0  0  0  0  0  0  0  0  0  0
   -4.6599   22.8075  -20.2120 H   0  0  0  0  0  0  0  0  0  0  0  0
  1  2  1  0  0  0  0
  1 18  2  0  0  0  0
  2  3  1  0  0  0  0
  2 15  2  0  0  0  0
  3  4  1  0  0  0  0
  3  5  1  0  0  0  0
  5  6  1  0  0  0  0
  5 10  1  0  0  0  0
  5 11  1  0  0  0  0
  6  7  1  0  0  0  0
  6  8  1  0  0  0  0
  6  9  1  0  0  0  0
 11 12  1  0  0  0  0
 11 13  1  0  0  0  0
 11 14  1  0  0  0  0
 15 16  1  0  0  0  0
 16 17  2  0  0  0  0
 16 23  1  0  0  0  0
 17 18  1  0  0  0  0
 17 20  1  0  0  0  0
 18 19  1  0  0  0  0
 19 25  1  0  0  0  0
 20 21  2  0  0  0  0
 21 22  1  0  0  0  0
 21 23  1  0  0  0  0
 23 24  1  0  0  0  0
 25 26  1  0  0  0  0
 25 27  1  0  0  0  0
 25 28  1  0  0  0  0
 28 29  1  0  0  0  0
 28 30  1  0  0  0  0
 28 42  1  0  0  0  0
 30 31  1  0  0  0  0
 30 32  1  0  0  0  0
 30 33  1  0  0  0  0
 33 34  1  0  0  0  0
 33 35  1  0  0  0  0
 33 36  1  0  0  0  0
 36 37  1  0  0  0  0
 36 38  1  0  0  0  0
 36 39  1  0  0  0  0
 39 40  1  0  0  0  0
 39 41  1  0  0  0  0
 39 42  1  0  0  0  0
 42 43  1  0  0  0  0
 42 44  1  0  0  0  0
M  END
$$$$
cdk2_hardcastle_10
  MOE2024           3D

 42 44  0  0  0  0  0  0  0  0999 V2000
   -7.4490   22.7400  -23.7880 N   0  0  0  0  0  0  0  0  0  0  0  0
   -8.4740   23.3220  -24.4580 C   0  0  0  0  0  0  0  0  0  0  0  0
   -8.2555   24.3060  -25.3681 N   0  0  0  0  0  0  0  0  0  0  0  0
   -9.0833   24.4461  -25.9577 H   0  0  0  0  0  0  0  0  0  0  0  0
   -6.9361   24.4101  -26.0003 C   0  0  0  0  0  0  0  0  0  0  0  0
   -6.9517   25.7023  -26.8254 C   0  0  0  0  0  0  0  0  0  0  0  0
   -7.8068   25.6962  -27.5029 H   0  0  0  0  0  0  0  0  0  0  0  0
   -5.7526   25.8416  -27.5724 O   0  0  0  0  0  0  0  0  0  0  0  0
   -5.7742   25.2648  -28.3421 H   0  0  0  0  0  0  0  0  0  0  0  0
   -7.0530   26.5484  -26.1432 H   0  0  0  0  0  0  0  0  0  0  0  0
   -6.7549   23.5515  -26.6491 H   0  0  0  0  0  0  0  0  0  0  0  0
   -6.1465   24.4760  -25.2482 H   0  0  0  0  0  0  0  0  0  0  0  0
   -9.7630   22.9220  -24.2500 N   0  0  0  0  0  0  0  0  0  0  0  0
  -10.0310   21.9340  -23.3640 C   0  0  0  0  0  0  0  0  0  0  0  0
   -9.0050   21.3010  -22.6060 C   0  0  0  0  0  0  0  0  0  0  0  0
   -7.6350   21.7760  -22.8640 C   0  0  0  0  0  0  0  0  0  0  0  0
   -6.5880   21.2310  -22.1870 O   0  0  0  0  0  0  0  0  0  0  0  0
   -9.5850   20.3700  -21.7740 N   0  0  0  0  0  0  0  0  0  0  0  0
  -10.9280   20.4780  -22.0730 C   0  0  0  0  0  0  0  0  0  0  0  0
  -11.6750   19.8637  -21.5925 H   0  0  0  0  0  0  0  0  0  0  0  0
  -11.2540   21.4190  -23.0230 N   0  0  0  0  0  0  0  0  0  0  0  0
  -12.1658   21.6675  -23.3793 H   0  0  0  0  0  0  0  0  0  0  0  0
   -5.2310   21.6010  -22.4650 C   0  0  0  0  0  0  0  0  0  0  0  0
   -5.1417   22.6872  -22.4822 H   0  0  0  0  0  0  0  0  0  0  0  0
   -4.9296   21.1964  -23.4312 H   0  0  0  0  0  0  0  0  0  0  0  0
   -4.3410   21.0280  -21.3660 C   0  0  0  0  0  0  0  0  0  0  0  0
   -4.5111   19.9606  -21.2256 H   0  0  0  0  0  0  0  0  0  0  0  0
   -2.8760   21.2220  -21.7760 C   0  0  0  0  0  0  0  0  0  0  0  0
   -2.7393   22.2491  -22.1142 H   0  0  0  0  0  0  0  0  0  0  0  0
   -2.6464   20.5371  -22.5923 H   0  0  0  0  0  0  0  0  0  0  0  0
   -1.9130   20.9520  -20.6220 C   0  0  0  0  0  0  0  0  0  0  0  0
   -0.9007   21.2107  -20.9325 H   0  0  0  0  0  0  0  0  0  0  0  0
   -1.9540   19.8944  -20.3614 H   0  0  0  0  0  0  0  0  0  0  0  0
   -2.2900   21.7830  -19.4020 C   0  0  0  0  0  0  0  0  0  0  0  0
   -2.2769   22.8410  -19.6637 H   0  0  0  0  0  0  0  0  0  0  0  0
   -1.5750   21.5982  -18.6003 H   0  0  0  0  0  0  0  0  0  0  0  0
   -3.6890   21.3900  -18.9380 C   0  0  0  0  0  0  0  0  0  0  0  0
   -3.9462   21.9427  -18.0344 H   0  0  0  0  0  0  0  0  0  0  0  0
   -3.7215   20.3203  -18.7312 H   0  0  0  0  0  0  0  0  0  0  0  0
   -4.6760   21.7300  -20.0480 C   0  0  0  0  0  0  0  0  0  0  0  0
   -5.6742   21.4252  -19.7336 H   0  0  0  0  0  0  0  0  0  0  0  0
   -4.6599   22.8075  -20.2120 H   0  0  0  0  0  0  0  0  0  0  0  0
  1  2  1  0  0  0  0
  1 16  2  0  0  0  0
  2  3  1  0  0  0  0
  2 13  2  0  0  0  0
  3  4  1  0  0  0  0
  3  5  1  0  0  0  0
  5  6  1  0  0  0  0
  5 11  1  0  0  0  0
  5 12  1  0  0  0  0
  6  7  1  0  0  0  0
  6  8  1  0  0  0  0
  6 10  1  0  0  0  0
  8  9  1  0  0  0  0
 13 14  1  0  0  0  0
 14 15  2  0  0  0  0
 14 21  1  0  0  0  0
 15 16  1  0  0  0  0
 15 18  1  0  0  0  0
 16 17  1  0  0  0  0
 17 23  1  0  0  0  0
 18 19  2  0  0  0  0
 19 20  1  0  0  0  0
 19 21  1  0  0  0  0
 21 22  1  0  0  0  0
 23 24  1  0  0  0  0
 23 25  1  0  0  0  0
 23 26  1  0  0  0  0
 26 27  1  0  0  0  0
 26 28  1  0  0  0  0
 26 40  1  0  0  0  0
 28 29  1  0  0  0  0
 28 30  1  0  0  0  0
 28 31  1  0  0  0  0
 31 32  1  0  0  0  0
 31 33  1  0  0  0  0
 31 34  1  0  0  0  0
 34 35  1  0  0  0  0
 34 36  1  0  0  0  0
 34 37  1  0  0  0  0
 37 38  1  0  0  0  0
 37 39  1  0  0  0  0
 37 40  1  0  0  0  0
 40 41  1  0  0  0  0
 40 42  1  0  0  0  0
M  END
$$$$
cdk2_hardcastle_15_1h1r
  MOE2024           3D

 45 48  0  0  0  0  0  0  0  0999 V2000
   -4.6450   26.2320  -28.2940 Cl  0  0  0  0  0  0  0  0  0  0  0  0
   -7.3910   22.3520  -23.5490 N   0  0  0  0  0  0  0  0  0  0  0  0
   -8.3770   23.0680  -24.3470 C   0  0  0  0  0  0  0  0  0  0  0  0
   -7.9930   23.9500  -25.2190 N   0  0  0  0  0  0  0  0  0  0  0  0
   -8.6622   24.1668  -25.9438 H   0  0  0  0  0  0  0  0  0  0  0  0
   -9.6510   22.8110  -24.1520 N   0  0  0  0  0  0  0  0  0  0  0  0
  -10.0950   21.8240  -23.2110 C   0  0  0  0  0  0  0  0  0  0  0  0
   -9.1730   21.1600  -22.4870 C   0  0  0  0  0  0  0  0  0  0  0  0
   -7.7720   21.4550  -22.6860 C   0  0  0  0  0  0  0  0  0  0  0  0
   -6.8790   20.7840  -21.9600 O   0  0  0  0  0  0  0  0  0  0  0  0
   -9.9590   20.2920  -21.6550 N   0  0  0  0  0  0  0  0  0  0  0  0
  -11.2030   20.4880  -21.9140 C   0  0  0  0  0  0  0  0  0  0  0  0
  -12.0283   19.9846  -21.4325 H   0  0  0  0  0  0  0  0  0  0  0  0
  -11.3140   21.4080  -22.8680 N   0  0  0  0  0  0  0  0  0  0  0  0
  -12.1810   21.7378  -23.2676 H   0  0  0  0  0  0  0  0  0  0  0  0
   -5.6290   21.4690  -22.1730 C   0  0  0  0  0  0  0  0  0  0  0  0
   -5.8093   22.5433  -22.1337 H   0  0  0  0  0  0  0  0  0  0  0  0
   -5.2480   21.2004  -23.1583 H   0  0  0  0  0  0  0  0  0  0  0  0
   -4.5780   21.1140  -21.1320 C   0  0  0  0  0  0  0  0  0  0  0  0
   -4.7054   20.0461  -20.9548 H   0  0  0  0  0  0  0  0  0  0  0  0
   -4.7720   21.7890  -19.7450 C   0  0  0  0  0  0  0  0  0  0  0  0
   -5.7315   21.4590  -19.3468 H   0  0  0  0  0  0  0  0  0  0  0  0
   -4.7950   22.8675  -19.9013 H   0  0  0  0  0  0  0  0  0  0  0  0
   -3.7070   21.4950  -18.6930 C   0  0  0  0  0  0  0  0  0  0  0  0
   -3.7406   20.4360  -18.4370 H   0  0  0  0  0  0  0  0  0  0  0  0
   -3.9101   22.0906  -17.8030 H   0  0  0  0  0  0  0  0  0  0  0  0
   -2.2420   21.8570  -19.2460 C   0  0  0  0  0  0  0  0  0  0  0  0
   -1.4832   21.5238  -18.5380 H   0  0  0  0  0  0  0  0  0  0  0  0
   -2.1542   22.9335  -19.3929 H   0  0  0  0  0  0  0  0  0  0  0  0
   -2.0680   21.1320  -20.5780 C   0  0  0  0  0  0  0  0  0  0  0  0
   -2.0617   20.0612  -20.3742 H   0  0  0  0  0  0  0  0  0  0  0  0
   -1.1049   21.4285  -20.9934 H   0  0  0  0  0  0  0  0  0  0  0  0
   -3.1640   21.4040  -21.6710 C   0  0  0  0  0  0  0  0  0  0  0  0
   -3.1083   22.4486  -21.9771 H   0  0  0  0  0  0  0  0  0  0  0  0
   -2.9738   20.7626  -22.5315 H   0  0  0  0  0  0  0  0  0  0  0  0
   -6.8210   24.6170  -25.2890 C   0  0  0  0  0  0  0  0  0  0  0  0
   -6.3760   25.0070  -26.5660 C   0  0  0  0  0  0  0  0  0  0  0  0
   -6.9434   24.7362  -27.4441 H   0  0  0  0  0  0  0  0  0  0  0  0
   -5.1860   25.7530  -26.6940 C   0  0  0  0  0  0  0  0  0  0  0  0
   -4.4760   26.1310  -25.5540 C   0  0  0  0  0  0  0  0  0  0  0  0
   -3.5752   26.7178  -25.6569 H   0  0  0  0  0  0  0  0  0  0  0  0
   -4.9170   25.7590  -24.2780 C   0  0  0  0  0  0  0  0  0  0  0  0
   -4.3666   26.0503  -23.3956 H   0  0  0  0  0  0  0  0  0  0  0  0
   -6.0830   25.0040  -24.1750 C   0  0  0  0  0  0  0  0  0  0  0  0
   -6.4266   24.7083  -23.1947 H   0  0  0  0  0  0  0  0  0  0  0  0
  1 39  1  0  0  0  0
  2  3  1  0  0  0  0
  2  9  2  0  0  0  0
  3  4  1  0  0  0  0
  3  6  2  0  0  0  0
  4  5  1  0  0  0  0
  4 36  1  0  0  0  0
  6  7  1  0  0  0  0
  7  8  2  0  0  0  0
  7 14  1  0  0  0  0
  8  9  1  0  0  0  0
  8 11  1  0  0  0  0
  9 10  1  0  0  0  0
 10 16  1  0  0  0  0
 11 12  2  0  0  0  0
 12 13  1  0  0  0  0
 12 14  1  0  0  0  0
 14 15  1  0  0  0  0
 16 17  1  0  0  0  0
 16 18  1  0  0  0  0
 16 19  1  0  0  0  0
 19 20  1  0  0  0  0
 19 21  1  0  0  0  0
 19 33  1  0  0  0  0
 21 22  1  0  0  0  0
 21 23  1  0  0  0  0
 21 24  1  0  0  0  0
 24 25  1  0  0  0  0
 24 26  1  0  0  0  0
 24 27  1  0  0  0  0
 27 28  1  0  0  0  0
 27 29  1  0  0  0  0
 27 30  1  0  0  0  0
 30 31  1  0  0  0  0
 30 32  1  0  0  0  0
 30 33  1  0  0  0  0
 33 34  1  0  0  0  0
 33 35  1  0  0  0  0
 36 37  1  0  0  0  0
 36 44  2  0  0  0  0
 37 38  1  0  0  0  0
 37 39  2  0  0  0  0
 39 40  1  0  0  0  0
 40 41  1  0  0  0  0
 40 42  2  0  0  0  0
 42 43  1  0  0  0  0
 42 44  1  0  0  0  0
 44 45  1  0  0  0  0
M  END
$$$$
cdk2_hardcastle_17
  MOE2024           3D

 45 48  0  0  0  0  0  0  0  0999 V2000
   -7.4490   22.7400  -23.7880 N   0  0  0  0  0  0  0  0  0  0  0  0
   -8.4740   23.3220  -24.4580 C   0  0  0  0  0  0  0  0  0  0  0  0
   -8.2748   24.3133  -25.3868 N   0  0  0  0  0  0  0  0  0  0  0  0
   -9.1079   24.5097  -25.9487 H   0  0  0  0  0  0  0  0  0  0  0  0
   -9.7630   22.9220  -24.2500 N   0  0  0  0  0  0  0  0  0  0  0  0
  -10.0310   21.9340  -23.3640 C   0  0  0  0  0  0  0  0  0  0  0  0
   -9.0050   21.3010  -22.6060 C   0  0  0  0  0  0  0  0  0  0  0  0
   -7.6350   21.7760  -22.8640 C   0  0  0  0  0  0  0  0  0  0  0  0
   -6.5880   21.2310  -22.1870 O   0  0  0  0  0  0  0  0  0  0  0  0
   -9.5850   20.3700  -21.7740 N   0  0  0  0  0  0  0  0  0  0  0  0
  -10.9280   20.4780  -22.0730 C   0  0  0  0  0  0  0  0  0  0  0  0
  -11.6750   19.8637  -21.5925 H   0  0  0  0  0  0  0  0  0  0  0  0
  -11.2540   21.4190  -23.0230 N   0  0  0  0  0  0  0  0  0  0  0  0
  -12.1658   21.6675  -23.3793 H   0  0  0  0  0  0  0  0  0  0  0  0
   -5.2310   21.6010  -22.4650 C   0  0  0  0  0  0  0  0  0  0  0  0
   -5.1417   22.6872  -22.4822 H   0  0  0  0  0  0  0  0  0  0  0  0
   -4.9296   21.1964  -23.4312 H   0  0  0  0  0  0  0  0  0  0  0  0
   -4.3410   21.0280  -21.3660 C   0  0  0  0  0  0  0  0  0  0  0  0
   -4.5111   19.9606  -21.2256 H   0  0  0  0  0  0  0  0  0  0  0  0
   -2.8760   21.2220  -21.7760 C   0  0  0  0  0  0  0  0  0  0  0  0
   -2.7393   22.2491  -22.1142 H   0  0  0  0  0  0  0  0  0  0  0  0
   -2.6464   20.5371  -22.5923 H   0  0  0  0  0  0  0  0  0  0  0  0
   -1.9130   20.9520  -20.6220 C   0  0  0  0  0  0  0  0  0  0  0  0
   -0.9007   21.2107  -20.9325 H   0  0  0  0  0  0  0  0  0  0  0  0
   -1.9540   19.8944  -20.3614 H   0  0  0  0  0  0  0  0  0  0  0  0
   -2.2900   21.7830  -19.4020 C   0  0  0  0  0  0  0  0  0  0  0  0
   -2.2769   22.8410  -19.6637 H   0  0  0  0  0  0  0  0  0  0  0  0
   -1.5750   21.5982  -18.6003 H   0  0  0  0  0  0  0  0  0  0  0  0
   -3.6890   21.3900  -18.9380 C   0  0  0  0  0  0  0  0  0  0  0  0
   -3.9462   21.9427  -18.0344 H   0  0  0  0  0  0  0  0  0  0  0  0
   -3.7215   20.3203  -18.7312 H   0  0  0  0  0  0  0  0  0  0  0  0
   -4.6760   21.7300  -20.0480 C   0  0  0  0  0  0  0  0  0  0  0  0
   -5.6742   21.4252  -19.7336 H   0  0  0  0  0  0  0  0  0  0  0  0
   -4.6599   22.8075  -20.2120 H   0  0  0  0  0  0  0  0  0  0  0  0
   -7.0571   24.9309  -25.7329 C   0  0  0  0  0  0  0  0  0  0  0  0
   -6.1038   25.2588  -24.7646 C   0  0  0  0  0  0  0  0  0  0  0  0
   -6.2820   25.0403  -23.7438 H   0  0  0  0  0  0  0  0  0  0  0  0
   -4.9224   25.8829  -25.1502 C   0  0  0  0  0  0  0  0  0  0  0  0
   -4.1939   26.1321  -24.4213 H   0  0  0  0  0  0  0  0  0  0  0  0
   -4.6963   26.1838  -26.4924 C   0  0  0  0  0  0  0  0  0  0  0  0
   -3.7953   26.6591  -26.7842 H   0  0  0  0  0  0  0  0  0  0  0  0
   -5.6554   25.8620  -27.4533 C   0  0  0  0  0  0  0  0  0  0  0  0
   -5.3434   26.2765  -29.2729 Br  0  0  0  0  0  0  0  0  0  0  0  0
   -6.8397   25.2372  -27.0760 C   0  0  0  0  0  0  0  0  0  0  0  0
   -7.5668   24.9898  -27.8038 H   0  0  0  0  0  0  0  0  0  0  0  0
  1  2  1  0  0  0  0
  1  8  2  0  0  0  0
  2  3  1  0  0  0  0
  2  5  2  0  0  0  0
  3  4  1  0  0  0  0
  3 35  1  0  0  0  0
  5  6  1  0  0  0  0
  6  7  2  0  0  0  0
  6 13  1  0  0  0  0
  7  8  1  0  0  0  0
  7 10  1  0  0  0  0
  8  9  1  0  0  0  0
  9 15  1  0  0  0  0
 10 11  2  0  0  0  0
 11 12  1  0  0  0  0
 11 13  1  0  0  0  0
 13 14  1  0  0  0  0
 15 16  1  0  0  0  0
 15 17  1  0  0  0  0
 15 18  1  0  0  0  0
 18 19  1  0  0  0  0
 18 20  1  0  0  0  0
 18 32  1  0  0  0  0
 20 21  1  0  0  0  0
 20 22  1  0  0  0  0
 20 23  1  0  0  0  0
 23 24  1  0  0  0  0
 23 25  1  0  0  0  0
 23 26  1  0  0  0  0
 26 27  1  0  0  0  0
 26 28  1  0  0  0  0
 26 29  1  0  0  0  0
 29 30  1  0  0  0  0
 29 31  1  0  0  0  0
 29 32  1  0  0  0  0
 32 33  1  0  0  0  0
 32 34  1  0  0  0  0
 35 36  1  0  0  0  0
 35 44  2  0  0  0  0
 36 37  1  0  0  0  0
 36 38  2  0  0  0  0
 38 39  1  0  0  0  0
 38 40  1  0  0  0  0
 40 41  1  0  0  0  0
 40 42  2  0  0  0  0
 42 43  1  0  0  0  0
 42 44  1  0  0  0  0
 44 45  1  0  0  0  0
M  END
$$$$
cdk2_hardcastle_18
  MOE2024           3D

 45 48  0  0  0  0  0  0  0  0999 V2000
   -7.4490   22.7400  -23.7880 N   0  0  0  0  0  0  0  0  0  0  0  0
   -8.4740   23.3220  -24.4580 C   0  0  0  0  0  0  0  0  0  0  0  0
   -8.2722   24.3198  -25.3794 N   0  0  0  0  0  0  0  0  0  0  0  0
   -9.1098   24.5276  -25.9321 H   0  0  0  0  0  0  0  0  0  0  0  0
   -9.7630   22.9220  -24.2500 N   0  0  0  0  0  0  0  0  0  0  0  0
  -10.0310   21.9340  -23.3640 C   0  0  0  0  0  0  0  0  0  0  0  0
   -9.0050   21.3010  -22.6060 C   0  0  0  0  0  0  0  0  0  0  0  0
   -7.6350   21.7760  -22.8640 C   0  0  0  0  0  0  0  0  0  0  0  0
   -6.5880   21.2310  -22.1870 O   0  0  0  0  0  0  0  0  0  0  0  0
   -9.5850   20.3700  -21.7740 N   0  0  0  0  0  0  0  0  0  0  0  0
  -10.9280   20.4780  -22.0730 C   0  0  0  0  0  0  0  0  0  0  0  0
  -11.6750   19.8637  -21.5925 H   0  0  0  0  0  0  0  0  0  0  0  0
  -11.2540   21.4190  -23.0230 N   0  0  0  0  0  0  0  0  0  0  0  0
  -12.1658   21.6675  -23.3793 H   0  0  0  0  0  0  0  0  0  0  0  0
   -5.2310   21.6010  -22.4650 C   0  0  0  0  0  0  0  0  0  0  0  0
   -5.1417   22.6872  -22.4822 H   0  0  0  0  0  0  0  0  0  0  0  0
   -4.9296   21.1964  -23.4312 H   0  0  0  0  0  0  0  0  0  0  0  0
   -4.3410   21.0280  -21.3660 C   0  0  0  0  0  0  0  0  0  0  0  0
   -4.5111   19.9606  -21.2256 H   0  0  0  0  0  0  0  0  0  0  0  0
   -2.8760   21.2220  -21.7760 C   0  0  0  0  0  0  0  0  0  0  0  0
   -2.7393   22.2491  -22.1142 H   0  0  0  0  0  0  0  0  0  0  0  0
   -2.6464   20.5371  -22.5923 H   0  0  0  0  0  0  0  0  0  0  0  0
   -1.9130   20.9520  -20.6220 C   0  0  0  0  0  0  0  0  0  0  0  0
   -0.9007   21.2107  -20.9325 H   0  0  0  0  0  0  0  0  0  0  0  0
   -1.9540   19.8944  -20.3614 H   0  0  0  0  0  0  0  0  0  0  0  0
   -2.2900   21.7830  -19.4020 C   0  0  0  0  0  0  0  0  0  0  0  0
   -2.2769   22.8410  -19.6637 H   0  0  0  0  0  0  0  0  0  0  0  0
   -1.5750   21.5982  -18.6003 H   0  0  0  0  0  0  0  0  0  0  0  0
   -3.6890   21.3900  -18.9380 C   0  0  0  0  0  0  0  0  0  0  0  0
   -3.9462   21.9427  -18.0344 H   0  0  0  0  0  0  0  0  0  0  0  0
   -3.7215   20.3203  -18.7312 H   0  0  0  0  0  0  0  0  0  0  0  0
   -4.6760   21.7300  -20.0480 C   0  0  0  0  0  0  0  0  0  0  0  0
   -5.6742   21.4252  -19.7336 H   0  0  0  0  0  0  0  0  0  0  0  0
   -4.6599   22.8075  -20.2120 H   0  0  0  0  0  0  0  0  0  0  0  0
   -7.0476   24.9293  -25.7245 C   0  0  0  0  0  0  0  0  0  0  0  0
   -6.0818   25.2199  -24.7581 C   0  0  0  0  0  0  0  0  0  0  0  0
   -6.2477   24.9959  -23.7371 H   0  0  0  0  0  0  0  0  0  0  0  0
   -4.8866   25.8203  -25.1497 C   0  0  0  0  0  0  0  0  0  0  0  0
   -3.6725   26.1669  -23.9651 Cl  0  0  0  0  0  0  0  0  0  0  0  0
   -4.6609   26.1447  -26.4874 C   0  0  0  0  0  0  0  0  0  0  0  0
   -3.7518   26.6019  -26.7787 H   0  0  0  0  0  0  0  0  0  0  0  0
   -5.6421   25.8627  -27.4381 C   0  0  0  0  0  0  0  0  0  0  0  0
   -5.3689   26.2688  -29.0981 Cl  0  0  0  0  0  0  0  0  0  0  0  0
   -6.8404   25.2555  -27.0639 C   0  0  0  0  0  0  0  0  0  0  0  0
   -7.5754   25.0408  -27.7943 H   0  0  0  0  0  0  0  0  0  0  0  0
  1  2  1  0  0  0  0
  1  8  2  0  0  0  0
  2  3  1  0  0  0  0
  2  5  2  0  0  0  0
  3  4  1  0  0  0  0
  3 35  1  0  0  0  0
  5  6  1  0  0  0  0
  6  7  2  0  0  0  0
  6 13  1  0  0  0  0
  7  8  1  0  0  0  0
  7 10  1  0  0  0  0
  8  9  1  0  0  0  0
  9 15  1  0  0  0  0
 10 11  2  0  0  0  0
 11 12  1  0  0  0  0
 11 13  1  0  0  0  0
 13 14  1  0  0  0  0
 15 16  1  0  0  0  0
 15 17  1  0  0  0  0
 15 18  1  0  0  0  0
 18 19  1  0  0  0  0
 18 20  1  0  0  0  0
 18 32  1  0  0  0  0
 20 21  1  0  0  0  0
 20 22  1  0  0  0  0
 20 23  1  0  0  0  0
 23 24  1  0  0  0  0
 23 25  1  0  0  0  0
 23 26  1  0  0  0  0
 26 27  1  0  0  0  0
 26 28  1  0  0  0  0
 26 29  1  0  0  0  0
 29 30  1  0  0  0  0
 29 31  1  0  0  0  0
 29 32  1  0  0  0  0
 32 33  1  0  0  0  0
 32 34  1  0  0  0  0
 35 36  1  0  0  0  0
 35 44  2  0  0  0  0
 36 37  1  0  0  0  0
 36 38  2  0  0  0  0
 38 39  1  0  0  0  0
 38 40  1  0  0  0  0
 40 41  1  0  0  0  0
 40 42  2  0  0  0  0
 42 43  1  0  0  0  0
 42 44  1  0  0  0  0
 44 45  1  0  0  0  0
M  END
$$$$
cdk2_hardcastle_20
  MOE2024           3D

 49 52  0  0  0  0  0  0  0  0999 V2000
   -7.4490   22.7400  -23.7880 N   0  0  0  0  0  0  0  0  0  0  0  0
   -8.4740   23.3220  -24.4580 C   0  0  0  0  0  0  0  0  0  0  0  0
   -8.2773   24.3183  -25.3818 N   0  0  0  0  0  0  0  0  0  0  0  0
   -9.0996   24.4933  -25.9645 H   0  0  0  0  0  0  0  0  0  0  0  0
   -9.7630   22.9220  -24.2500 N   0  0  0  0  0  0  0  0  0  0  0  0
  -10.0310   21.9340  -23.3640 C   0  0  0  0  0  0  0  0  0  0  0  0
   -9.0050   21.3010  -22.6060 C   0  0  0  0  0  0  0  0  0  0  0  0
   -7.6350   21.7760  -22.8640 C   0  0  0  0  0  0  0  0  0  0  0  0
   -6.5880   21.2310  -22.1870 O   0  0  0  0  0  0  0  0  0  0  0  0
   -9.5850   20.3700  -21.7740 N   0  0  0  0  0  0  0  0  0  0  0  0
  -10.9280   20.4780  -22.0730 C   0  0  0  0  0  0  0  0  0  0  0  0
  -11.6750   19.8637  -21.5925 H   0  0  0  0  0  0  0  0  0  0  0  0
  -11.2540   21.4190  -23.0230 N   0  0  0  0  0  0  0  0  0  0  0  0
  -12.1658   21.6675  -23.3793 H   0  0  0  0  0  0  0  0  0  0  0  0
   -5.2310   21.6010  -22.4650 C   0  0  0  0  0  0  0  0  0  0  0  0
   -5.1417   22.6872  -22.4822 H   0  0  0  0  0  0  0  0  0  0  0  0
   -4.9296   21.1964  -23.4312 H   0  0  0  0  0  0  0  0  0  0  0  0
   -4.3410   21.0280  -21.3660 C   0  0  0  0  0  0  0  0  0  0  0  0
   -4.5111   19.9606  -21.2256 H   0  0  0  0  0  0  0  0  0  0  0  0
   -2.8760   21.2220  -21.7760 C   0  0  0  0  0  0  0  0  0  0  0  0
   -2.7393   22.2491  -22.1142 H   0  0  0  0  0  0  0  0  0  0  0  0
   -2.6464   20.5371  -22.5923 H   0  0  0  0  0  0  0  0  0  0  0  0
   -1.9130   20.9520  -20.6220 C   0  0  0  0  0  0  0  0  0  0  0  0
   -0.9007   21.2107  -20.9325 H   0  0  0  0  0  0  0  0  0  0  0  0
   -1.9540   19.8944  -20.3614 H   0  0  0  0  0  0  0  0  0  0  0  0
   -2.2900   21.7830  -19.4020 C   0  0  0  0  0  0  0  0  0  0  0  0
   -2.2769   22.8410  -19.6637 H   0  0  0  0  0  0  0  0  0  0  0  0
   -1.5750   21.5982  -18.6003 H   0  0  0  0  0  0  0  0  0  0  0  0
   -3.6890   21.3900  -18.9380 C   0  0  0  0  0  0  0  0  0  0  0  0
   -3.9462   21.9427  -18.0344 H   0  0  0  0  0  0  0  0  0  0  0  0
   -3.7215   20.3203  -18.7312 H   0  0  0  0  0  0  0  0  0  0  0  0
   -4.6760   21.7300  -20.0480 C   0  0  0  0  0  0  0  0  0  0  0  0
   -5.6742   21.4252  -19.7336 H   0  0  0  0  0  0  0  0  0  0  0  0
   -4.6599   22.8075  -20.2120 H   0  0  0  0  0  0  0  0  0  0  0  0
   -7.0746   24.9782  -25.7067 C   0  0  0  0  0  0  0  0  0  0  0  0
   -6.1106   25.2714  -24.7393 C   0  0  0  0  0  0  0  0  0  0  0  0
   -6.2636   24.9961  -23.7290 H   0  0  0  0  0  0  0  0  0  0  0  0
   -4.9495   25.9374  -25.1130 C   0  0  0  0  0  0  0  0  0  0  0  0
   -4.2109   26.1577  -24.3859 H   0  0  0  0  0  0  0  0  0  0  0  0
   -4.7546   26.3190  -26.4395 C   0  0  0  0  0  0  0  0  0  0  0  0
   -3.8639   26.8254  -26.7098 H   0  0  0  0  0  0  0  0  0  0  0  0
   -5.7237   26.0384  -27.4063 C   0  0  0  0  0  0  0  0  0  0  0  0
   -5.5176   26.4805  -28.8429 C   0  0  0  0  0  0  0  0  0  0  0  0
   -6.3083   27.1682  -29.1142 H   0  0  0  0  0  0  0  0  0  0  0  0
   -5.6191   25.2787  -29.6410 O   0  0  0  0  0  0  0  0  0  0  0  0
   -5.4255   25.4674  -30.5732 H   0  0  0  0  0  0  0  0  0  0  0  0
   -4.5278   26.9044  -28.9530 H   0  0  0  0  0  0  0  0  0  0  0  0
   -6.8868   25.3658  -27.0338 C   0  0  0  0  0  0  0  0  0  0  0  0
   -7.6220   25.1375  -27.7605 H   0  0  0  0  0  0  0  0  0  0  0  0
  1  2  1  0  0  0  0
  1  8  2  0  0  0  0
  2  3  1  0  0  0  0
  2  5  2  0  0  0  0
  3  4  1  0  0  0  0
  3 35  1  0  0  0  0
  5  6  1  0  0  0  0
  6  7  2  0  0  0  0
  6 13  1  0  0  0  0
  7  8  1  0  0  0  0
  7 10  1  0  0  0  0
  8  9  1  0  0  0  0
  9 15  1  0  0  0  0
 10 11  2  0  0  0  0
 11 12  1  0  0  0  0
 11 13  1  0  0  0  0
 13 14  1  0  0  0  0
 15 16  1  0  0  0  0
 15 17  1  0  0  0  0
 15 18  1  0  0  0  0
 18 19  1  0  0  0  0
 18 20  1  0  0  0  0
 18 32  1  0  0  0  0
 20 21  1  0  0  0  0
 20 22  1  0  0  0  0
 20 23  1  0  0  0  0
 23 24  1  0  0  0  0
 23 25  1  0  0  0  0
 23 26  1  0  0  0  0
 26 27  1  0  0  0  0
 26 28  1  0  0  0  0
 26 29  1  0  0  0  0
 29 30  1  0  0  0  0
 29 31  1  0  0  0  0
 29 32  1  0  0  0  0
 32 33  1  0  0  0  0
 32 34  1  0  0  0  0
 35 36  1  0  0  0  0
 35 48  2  0  0  0  0
 36 37  1  0  0  0  0
 36 38  2  0  0  0  0
 38 39  1  0  0  0  0
 38 40  1  0  0  0  0
 40 41  1  0  0  0  0
 40 42  2  0  0  0  0
 42 43  1  0  0  0  0
 42 48  1  0  0  0  0
 43 44  1  0  0  0  0
 43 45  1  0  0  0  0
 43 47  1  0  0  0  0
 45 46  1  0  0  0  0
 48 49  1  0  0  0  0
M  END
$$$$
cdk2_hardcastle_21
  MOE2024           3D

 49 52  0  0  0  0  0  0  0  0999 V2000
   -7.4490   22.7400  -23.7880 N   0  0  0  0  0  0  0  0  0  0  0  0
   -8.4740   23.3220  -24.4580 C   0  0  0  0  0  0  0  0  0  0  0  0
   -8.2807   24.3173  -25.3836 N   0  0  0  0  0  0  0  0  0  0  0  0
   -9.1204   24.5208  -25.9318 H   0  0  0  0  0  0  0  0  0  0  0  0
   -9.7630   22.9220  -24.2500 N   0  0  0  0  0  0  0  0  0  0  0  0
  -10.0310   21.9340  -23.3640 C   0  0  0  0  0  0  0  0  0  0  0  0
   -9.0050   21.3010  -22.6060 C   0  0  0  0  0  0  0  0  0  0  0  0
   -7.6350   21.7760  -22.8640 C   0  0  0  0  0  0  0  0  0  0  0  0
   -6.5880   21.2310  -22.1870 O   0  0  0  0  0  0  0  0  0  0  0  0
   -9.5850   20.3700  -21.7740 N   0  0  0  0  0  0  0  0  0  0  0  0
  -10.9280   20.4780  -22.0730 C   0  0  0  0  0  0  0  0  0  0  0  0
  -11.6750   19.8637  -21.5925 H   0  0  0  0  0  0  0  0  0  0  0  0
  -11.2540   21.4190  -23.0230 N   0  0  0  0  0  0  0  0  0  0  0  0
  -12.1658   21.6675  -23.3793 H   0  0  0  0  0  0  0  0  0  0  0  0
   -5.2310   21.6010  -22.4650 C   0  0  0  0  0  0  0  0  0  0  0  0
   -5.1417   22.6872  -22.4822 H   0  0  0  0  0  0  0  0  0  0  0  0
   -4.9296   21.1964  -23.4312 H   0  0  0  0  0  0  0  0  0  0  0  0
   -4.3410   21.0280  -21.3660 C   0  0  0  0  0  0  0  0  0  0  0  0
   -4.5111   19.9606  -21.2256 H   0  0  0  0  0  0  0  0  0  0  0  0
   -2.8760   21.2220  -21.7760 C   0  0  0  0  0  0  0  0  0  0  0  0
   -2.7393   22.2491  -22.1142 H   0  0  0  0  0  0  0  0  0  0  0  0
   -2.6464   20.5371  -22.5923 H   0  0  0  0  0  0  0  0  0  0  0  0
   -1.9130   20.9520  -20.6220 C   0  0  0  0  0  0  0  0  0  0  0  0
   -0.9007   21.2107  -20.9325 H   0  0  0  0  0  0  0  0  0  0  0  0
   -1.9540   19.8944  -20.3614 H   0  0  0  0  0  0  0  0  0  0  0  0
   -2.2900   21.7830  -19.4020 C   0  0  0  0  0  0  0  0  0  0  0  0
   -2.2769   22.8410  -19.6637 H   0  0  0  0  0  0  0  0  0  0  0  0
   -1.5750   21.5982  -18.6003 H   0  0  0  0  0  0  0  0  0  0  0  0
   -3.6890   21.3900  -18.9380 C   0  0  0  0  0  0  0  0  0  0  0  0
   -3.9462   21.9427  -18.0344 H   0  0  0  0  0  0  0  0  0  0  0  0
   -3.7215   20.3203  -18.7312 H   0  0  0  0  0  0  0  0  0  0  0  0
   -4.6760   21.7300  -20.0480 C   0  0  0  0  0  0  0  0  0  0  0  0
   -5.6742   21.4252  -19.7336 H   0  0  0  0  0  0  0  0  0  0  0  0
   -4.6599   22.8075  -20.2120 H   0  0  0  0  0  0  0  0  0  0  0  0
   -7.0787   24.9742  -25.7197 C   0  0  0  0  0  0  0  0  0  0  0  0
   -6.1089   25.2696  -24.7543 C   0  0  0  0  0  0  0  0  0  0  0  0
   -6.2605   24.9968  -23.7428 H   0  0  0  0  0  0  0  0  0  0  0  0
   -4.9454   25.9365  -25.1284 C   0  0  0  0  0  0  0  0  0  0  0  0
   -4.2070   26.1590  -24.4014 H   0  0  0  0  0  0  0  0  0  0  0  0
   -4.7518   26.3161  -26.4549 C   0  0  0  0  0  0  0  0  0  0  0  0
   -3.8706   26.8250  -26.7481 H   0  0  0  0  0  0  0  0  0  0  0  0
   -5.7296   26.0258  -27.4043 C   0  0  0  0  0  0  0  0  0  0  0  0
   -5.4844   26.4333  -28.6984 O   0  0  0  0  0  0  0  0  0  0  0  0
   -6.3823   26.2384  -29.8141 C   0  0  0  0  0  0  0  0  0  0  0  0
   -5.9146   26.6738  -30.6972 H   0  0  0  0  0  0  0  0  0  0  0  0
   -7.3221   26.7448  -29.5921 H   0  0  0  0  0  0  0  0  0  0  0  0
   -6.5317   25.1673  -29.9517 H   0  0  0  0  0  0  0  0  0  0  0  0
   -6.8995   25.3549  -27.0494 C   0  0  0  0  0  0  0  0  0  0  0  0
   -7.6391   25.1306  -27.7692 H   0  0  0  0  0  0  0  0  0  0  0  0
  1  2  1  0  0  0  0
  1  8  2  0  0  0  0
  2  3  1  0  0  0  0
  2  5  2  0  0  0  0
  3  4  1  0  0  0  0
  3 35  1  0  0  0  0
  5  6  1  0  0  0  0
  6  7  2  0  0  0  0
  6 13  1  0  0  0  0
  7  8  1  0  0  0  0
  7 10  1  0  0  0  0
  8  9  1  0  0  0  0
  9 15  1  0  0  0  0
 10 11  2  0  0  0  0
 11 12  1  0  0  0  0
 11 13  1  0  0  0  0
 13 14  1  0  0  0  0
 15 16  1  0  0  0  0
 15 17  1  0  0  0  0
 15 18  1  0  0  0  0
 18 19  1  0  0  0  0
 18 20  1  0  0  0  0
 18 32  1  0  0  0  0
 20 21  1  0  0  0  0
 20 22  1  0  0  0  0
 20 23  1  0  0  0  0
 23 24  1  0  0  0  0
 23 25  1  0  0  0  0
 23 26  1  0  0  0  0
 26 27  1  0  0  0  0
 26 28  1  0  0  0  0
 26 29  1  0  0  0  0
 29 30  1  0  0  0  0
 29 31  1  0  0  0  0
 29 32  1  0  0  0  0
 32 33  1  0  0  0  0
 32 34  1  0  0  0  0
 35 36  1  0  0  0  0
 35 48  2  0  0  0  0
 36 37  1  0  0  0  0
 36 38  2  0  0  0  0
 38 39  1  0  0  0  0
 38 40  1  0  0  0  0
 40 41  1  0  0  0  0
 40 42  2  0  0  0  0
 42 43  1  0  0  0  0
 42 48  1  0  0  0  0
 43 44  1  0  0  0  0
 44 45  1  0  0  0  0
 44 46  1  0  0  0  0
 44 47  1  0  0  0  0
 48 49  1  0  0  0  0
M  END
$$$$
cdk2_hardcastle_22
  MOE2024           3D

 49 52  0  0  0  0  0  0  0  0999 V2000
   -7.4490   22.7400  -23.7880 N   0  0  0  0  0  0  0  0  0  0  0  0
   -8.4740   23.3220  -24.4580 C   0  0  0  0  0  0  0  0  0  0  0  0
   -8.2746   24.3160  -25.3828 N   0  0  0  0  0  0  0  0  0  0  0  0
   -9.1065   24.5175  -25.9437 H   0  0  0  0  0  0  0  0  0  0  0  0
   -9.7630   22.9220  -24.2500 N   0  0  0  0  0  0  0  0  0  0  0  0
  -10.0310   21.9340  -23.3640 C   0  0  0  0  0  0  0  0  0  0  0  0
   -9.0050   21.3010  -22.6060 C   0  0  0  0  0  0  0  0  0  0  0  0
   -7.6350   21.7760  -22.8640 C   0  0  0  0  0  0  0  0  0  0  0  0
   -6.5880   21.2310  -22.1870 O   0  0  0  0  0  0  0  0  0  0  0  0
   -9.5850   20.3700  -21.7740 N   0  0  0  0  0  0  0  0  0  0  0  0
  -10.9280   20.4780  -22.0730 C   0  0  0  0  0  0  0  0  0  0  0  0
  -11.6750   19.8637  -21.5925 H   0  0  0  0  0  0  0  0  0  0  0  0
  -11.2540   21.4190  -23.0230 N   0  0  0  0  0  0  0  0  0  0  0  0
  -12.1658   21.6675  -23.3793 H   0  0  0  0  0  0  0  0  0  0  0  0
   -5.2310   21.6010  -22.4650 C   0  0  0  0  0  0  0  0  0  0  0  0
   -5.1417   22.6872  -22.4822 H   0  0  0  0  0  0  0  0  0  0  0  0
   -4.9296   21.1964  -23.4312 H   0  0  0  0  0  0  0  0  0  0  0  0
   -4.3410   21.0280  -21.3660 C   0  0  0  0  0  0  0  0  0  0  0  0
   -4.5111   19.9606  -21.2256 H   0  0  0  0  0  0  0  0  0  0  0  0
   -2.8760   21.2220  -21.7760 C   0  0  0  0  0  0  0  0  0  0  0  0
   -2.7393   22.2491  -22.1142 H   0  0  0  0  0  0  0  0  0  0  0  0
   -2.6464   20.5371  -22.5923 H   0  0  0  0  0  0  0  0  0  0  0  0
   -1.9130   20.9520  -20.6220 C   0  0  0  0  0  0  0  0  0  0  0  0
   -0.9007   21.2107  -20.9325 H   0  0  0  0  0  0  0  0  0  0  0  0
   -1.9540   19.8944  -20.3614 H   0  0  0  0  0  0  0  0  0  0  0  0
   -2.2900   21.7830  -19.4020 C   0  0  0  0  0  0  0  0  0  0  0  0
   -2.2769   22.8410  -19.6637 H   0  0  0  0  0  0  0  0  0  0  0  0
   -1.5750   21.5982  -18.6003 H   0  0  0  0  0  0  0  0  0  0  0  0
   -3.6890   21.3900  -18.9380 C   0  0  0  0  0  0  0  0  0  0  0  0
   -3.9462   21.9427  -18.0344 H   0  0  0  0  0  0  0  0  0  0  0  0
   -3.7215   20.3203  -18.7312 H   0  0  0  0  0  0  0  0  0  0  0  0
   -4.6760   21.7300  -20.0480 C   0  0  0  0  0  0  0  0  0  0  0  0
   -5.6742   21.4252  -19.7336 H   0  0  0  0  0  0  0  0  0  0  0  0
   -4.6599   22.8075  -20.2120 H   0  0  0  0  0  0  0  0  0  0  0  0
   -7.0719   24.9936  -25.6751 C   0  0  0  0  0  0  0  0  0  0  0  0
   -6.1655   25.3299  -24.6658 C   0  0  0  0  0  0  0  0  0  0  0  0
   -6.3632   25.0722  -23.6580 H   0  0  0  0  0  0  0  0  0  0  0  0
   -5.0034   26.0175  -24.9975 C   0  0  0  0  0  0  0  0  0  0  0  0
   -4.3091   26.2747  -24.2390 H   0  0  0  0  0  0  0  0  0  0  0  0
   -4.7505   26.3722  -26.3193 C   0  0  0  0  0  0  0  0  0  0  0  0
   -3.8657   26.8966  -26.5724 H   0  0  0  0  0  0  0  0  0  0  0  0
   -5.6621   26.0430  -27.3309 C   0  0  0  0  0  0  0  0  0  0  0  0
   -5.2818   26.5273  -28.9718 S   0  0  0  0  0  0  0  0  0  0  0  0
   -6.6321   25.9264  -30.0414 C   0  0  0  0  0  0  0  0  0  0  0  0
   -6.3865   26.2223  -31.0613 H   0  0  0  0  0  0  0  0  0  0  0  0
   -7.5555   26.4000  -29.7079 H   0  0  0  0  0  0  0  0  0  0  0  0
   -6.6708   24.8410  -29.9469 H   0  0  0  0  0  0  0  0  0  0  0  0
   -6.8324   25.3483  -27.0004 C   0  0  0  0  0  0  0  0  0  0  0  0
   -7.5318   25.0864  -27.7455 H   0  0  0  0  0  0  0  0  0  0  0  0
  1  2  1  0  0  0  0
  1  8  2  0  0  0  0
  2  3  1  0  0  0  0
  2  5  2  0  0  0  0
  3  4  1  0  0  0  0
  3 35  1  0  0  0  0
  5  6  1  0  0  0  0
  6  7  2  0  0  0  0
  6 13  1  0  0  0  0
  7  8  1  0  0  0  0
  7 10  1  0  0  0  0
  8  9  1  0  0  0  0
  9 15  1  0  0  0  0
 10 11  2  0  0  0  0
 11 12  1  0  0  0  0
 11 13  1  0  0  0  0
 13 14  1  0  0  0  0
 15 16  1  0  0  0  0
 15 17  1  0  0  0  0
 15 18  1  0  0  0  0
 18 19  1  0  0  0  0
 18 20  1  0  0  0  0
 18 32  1  0  0  0  0
 20 21  1  0  0  0  0
 20 22  1  0  0  0  0
 20 23  1  0  0  0  0
 23 24  1  0  0  0  0
 23 25  1  0  0  0  0
 23 26  1  0  0  0  0
 26 27  1  0  0  0  0
 26 28  1  0  0  0  0
 26 29  1  0  0  0  0
 29 30  1  0  0  0  0
 29 31  1  0  0  0  0
 29 32  1  0  0  0  0
 32 33  1  0  0  0  0
 32 34  1  0  0  0  0
 35 36  1  0  0  0  0
 35 48  2  0  0  0  0
 36 37  1  0  0  0  0
 36 38  2  0  0  0  0
 38 39  1  0  0  0  0
 38 40  1  0  0  0  0
 40 41  1  0  0  0  0
 40 42  2  0  0  0  0
 42 43  1  0  0  0  0
 42 48  1  0  0  0  0
 43 44  1  0  0  0  0
 44 45  1  0  0  0  0
 44 46  1  0  0  0  0
 44 47  1  0  0  0  0
 48 49  1  0  0  0  0
M  END
$$$$
cdk2_hardcastle_25_1oi9
  MOE2024           3D

 46 49  0  0  0  0  0  0  0  0999 V2000
   -7.4490   22.7400  -23.7880 N   0  0  0  0  0  0  0  0  0  0  0  0
   -8.4740   23.3220  -24.4580 C   0  0  0  0  0  0  0  0  0  0  0  0
   -8.2020   24.3050  -25.3530 N   0  0  0  0  0  0  0  0  0  0  0  0
   -8.9289   24.5792  -25.9984 H   0  0  0  0  0  0  0  0  0  0  0  0
   -9.7630   22.9220  -24.2500 N   0  0  0  0  0  0  0  0  0  0  0  0
  -10.0310   21.9340  -23.3640 C   0  0  0  0  0  0  0  0  0  0  0  0
   -9.0050   21.3010  -22.6060 C   0  0  0  0  0  0  0  0  0  0  0  0
   -7.6350   21.7760  -22.8640 C   0  0  0  0  0  0  0  0  0  0  0  0
   -6.5880   21.2310  -22.1870 O   0  0  0  0  0  0  0  0  0  0  0  0
   -9.5850   20.3700  -21.7740 N   0  0  0  0  0  0  0  0  0  0  0  0
  -10.9280   20.4780  -22.0730 C   0  0  0  0  0  0  0  0  0  0  0  0
  -11.6750   19.8637  -21.5925 H   0  0  0  0  0  0  0  0  0  0  0  0
  -11.2540   21.4190  -23.0230 N   0  0  0  0  0  0  0  0  0  0  0  0
  -12.1658   21.6675  -23.3793 H   0  0  0  0  0  0  0  0  0  0  0  0
   -5.2310   21.6010  -22.4650 C   0  0  0  0  0  0  0  0  0  0  0  0
   -5.1417   22.6872  -22.4822 H   0  0  0  0  0  0  0  0  0  0  0  0
   -4.9296   21.1964  -23.4312 H   0  0  0  0  0  0  0  0  0  0  0  0
   -4.3410   21.0280  -21.3660 C   0  0  0  0  0  0  0  0  0  0  0  0
   -4.5111   19.9606  -21.2256 H   0  0  0  0  0  0  0  0  0  0  0  0
   -2.8760   21.2220  -21.7760 C   0  0  0  0  0  0  0  0  0  0  0  0
   -2.7393   22.2491  -22.1142 H   0  0  0  0  0  0  0  0  0  0  0  0
   -2.6464   20.5371  -22.5923 H   0  0  0  0  0  0  0  0  0  0  0  0
   -1.9130   20.9520  -20.6220 C   0  0  0  0  0  0  0  0  0  0  0  0
   -0.9007   21.2107  -20.9325 H   0  0  0  0  0  0  0  0  0  0  0  0
   -1.9540   19.8944  -20.3614 H   0  0  0  0  0  0  0  0  0  0  0  0
   -2.2900   21.7830  -19.4020 C   0  0  0  0  0  0  0  0  0  0  0  0
   -2.2769   22.8410  -19.6637 H   0  0  0  0  0  0  0  0  0  0  0  0
   -1.5750   21.5982  -18.6003 H   0  0  0  0  0  0  0  0  0  0  0  0
   -3.6890   21.3900  -18.9380 C   0  0  0  0  0  0  0  0  0  0  0  0
   -3.9462   21.9427  -18.0344 H   0  0  0  0  0  0  0  0  0  0  0  0
   -3.7215   20.3203  -18.7312 H   0  0  0  0  0  0  0  0  0  0  0  0
   -4.6760   21.7300  -20.0480 C   0  0  0  0  0  0  0  0  0  0  0  0
   -5.6742   21.4252  -19.7336 H   0  0  0  0  0  0  0  0  0  0  0  0
   -4.6599   22.8075  -20.2120 H   0  0  0  0  0  0  0  0  0  0  0  0
   -6.9910   24.9460  -25.4270 C   0  0  0  0  0  0  0  0  0  0  0  0
   -6.1560   25.1430  -24.3130 C   0  0  0  0  0  0  0  0  0  0  0  0
   -6.4596   24.7769  -23.3434 H   0  0  0  0  0  0  0  0  0  0  0  0
   -4.9330   25.8110  -24.4530 C   0  0  0  0  0  0  0  0  0  0  0  0
   -4.2900   25.9532  -23.5970 H   0  0  0  0  0  0  0  0  0  0  0  0
   -4.5500   26.2930  -25.7100 C   0  0  0  0  0  0  0  0  0  0  0  0
   -5.3790   26.1040  -26.8160 C   0  0  0  0  0  0  0  0  0  0  0  0
   -5.0781   26.4697  -27.7866 H   0  0  0  0  0  0  0  0  0  0  0  0
   -6.5930   25.4440  -26.6660 C   0  0  0  0  0  0  0  0  0  0  0  0
   -7.2377   25.3152  -27.5229 H   0  0  0  0  0  0  0  0  0  0  0  0
   -3.3900   26.9310  -25.8770 O   0  0  0  0  0  0  0  0  0  0  0  0
   -3.2112   27.2194  -26.7750 H   0  0  0  0  0  0  0  0  0  0  0  0
  1  2  1  0  0  0  0
  1  8  2  0  0  0  0
  2  3  1  0  0  0  0
  2  5  2  0  0  0  0
  3  4  1  0  0  0  0
  3 35  1  0  0  0  0
  5  6  1  0  0  0  0
  6  7  2  0  0  0  0
  6 13  1  0  0  0  0
  7  8  1  0  0  0  0
  7 10  1  0  0  0  0
  8  9  1  0  0  0  0
  9 15  1  0  0  0  0
 10 11  2  0  0  0  0
 11 12  1  0  0  0  0
 11 13  1  0  0  0  0
 13 14  1  0  0  0  0
 15 16  1  0  0  0  0
 15 17  1  0  0  0  0
 15 18  1  0  0  0  0
 18 19  1  0  0  0  0
 18 20  1  0  0  0  0
 18 32  1  0  0  0  0
 20 21  1  0  0  0  0
 20 22  1  0  0  0  0
 20 23  1  0  0  0  0
 23 24  1  0  0  0  0
 23 25  1  0  0  0  0
 23 26  1  0  0  0  0
 26 27  1  0  0  0  0
 26 28  1  0  0  0  0
 26 29  1  0  0  0  0
 29 30  1  0  0  0  0
 29 31  1  0  0  0  0
 29 32  1  0  0  0  0
 32 33  1  0  0  0  0
 32 34  1  0  0  0  0
 35 36  1  0  0  0  0
 35 43  2  0  0  0  0
 36 37  1  0  0  0  0
 36 38  2  0  0  0  0
 38 39  1  0  0  0  0
 38 40  1  0  0  0  0
 40 41  2  0  0  0  0
 40 45  1  0  0  0  0
 41 42  1  0  0  0  0
 41 43  1  0  0  0  0
 43 44  1  0  0  0  0
 45 46  1  0  0  0  0
M  END
$$$$
cdk2_hardcastle_26
  MOE2024           3D

 49 52  0  0  0  0  0  0  0  0999 V2000
   -7.4490   22.7400  -23.7880 N   0  0  0  0  0  0  0  0  0  0  0  0
   -8.4740   23.3220  -24.4580 C   0  0  0  0  0  0  0  0  0  0  0  0
   -8.2793   24.3213  -25.3775 N   0  0  0  0  0  0  0  0  0  0  0  0
   -9.1117   24.5193  -25.9386 H   0  0  0  0  0  0  0  0  0  0  0  0
   -9.7630   22.9220  -24.2500 N   0  0  0  0  0  0  0  0  0  0  0  0
  -10.0310   21.9340  -23.3640 C   0  0  0  0  0  0  0  0  0  0  0  0
   -9.0050   21.3010  -22.6060 C   0  0  0  0  0  0  0  0  0  0  0  0
   -7.6350   21.7760  -22.8640 C   0  0  0  0  0  0  0  0  0  0  0  0
   -6.5880   21.2310  -22.1870 O   0  0  0  0  0  0  0  0  0  0  0  0
   -9.5850   20.3700  -21.7740 N   0  0  0  0  0  0  0  0  0  0  0  0
  -10.9280   20.4780  -22.0730 C   0  0  0  0  0  0  0  0  0  0  0  0
  -11.6750   19.8637  -21.5925 H   0  0  0  0  0  0  0  0  0  0  0  0
  -11.2540   21.4190  -23.0230 N   0  0  0  0  0  0  0  0  0  0  0  0
  -12.1658   21.6675  -23.3793 H   0  0  0  0  0  0  0  0  0  0  0  0
   -5.2310   21.6010  -22.4650 C   0  0  0  0  0  0  0  0  0  0  0  0
   -5.1417   22.6872  -22.4822 H   0  0  0  0  0  0  0  0  0  0  0  0
   -4.9296   21.1964  -23.4312 H   0  0  0  0  0  0  0  0  0  0  0  0
   -4.3410   21.0280  -21.3660 C   0  0  0  0  0  0  0  0  0  0  0  0
   -4.5111   19.9606  -21.2256 H   0  0  0  0  0  0  0  0  0  0  0  0
   -2.8760   21.2220  -21.7760 C   0  0  0  0  0  0  0  0  0  0  0  0
   -2.7393   22.2491  -22.1142 H   0  0  0  0  0  0  0  0  0  0  0  0
   -2.6464   20.5371  -22.5923 H   0  0  0  0  0  0  0  0  0  0  0  0
   -1.9130   20.9520  -20.6220 C   0  0  0  0  0  0  0  0  0  0  0  0
   -0.9007   21.2107  -20.9325 H   0  0  0  0  0  0  0  0  0  0  0  0
   -1.9540   19.8944  -20.3614 H   0  0  0  0  0  0  0  0  0  0  0  0
   -2.2900   21.7830  -19.4020 C   0  0  0  0  0  0  0  0  0  0  0  0
   -2.2769   22.8410  -19.6637 H   0  0  0  0  0  0  0  0  0  0  0  0
   -1.5750   21.5982  -18.6003 H   0  0  0  0  0  0  0  0  0  0  0  0
   -3.6890   21.3900  -18.9380 C   0  0  0  0  0  0  0  0  0  0  0  0
   -3.9462   21.9427  -18.0344 H   0  0  0  0  0  0  0  0  0  0  0  0
   -3.7215   20.3203  -18.7312 H   0  0  0  0  0  0  0  0  0  0  0  0
   -4.6760   21.7300  -20.0480 C   0  0  0  0  0  0  0  0  0  0  0  0
   -5.6742   21.4252  -19.7336 H   0  0  0  0  0  0  0  0  0  0  0  0
   -4.6599   22.8075  -20.2120 H   0  0  0  0  0  0  0  0  0  0  0  0
   -7.0906   25.0291  -25.6545 C   0  0  0  0  0  0  0  0  0  0  0  0
   -6.1719   25.3443  -24.6474 C   0  0  0  0  0  0  0  0  0  0  0  0
   -6.3506   25.0480  -23.6471 H   0  0  0  0  0  0  0  0  0  0  0  0
   -5.0240   26.0612  -24.9669 C   0  0  0  0  0  0  0  0  0  0  0  0
   -4.3163   26.3066  -24.2186 H   0  0  0  0  0  0  0  0  0  0  0  0
   -4.8038   26.4645  -26.2819 C   0  0  0  0  0  0  0  0  0  0  0  0
   -5.7247   26.1596  -27.2886 C   0  0  0  0  0  0  0  0  0  0  0  0
   -5.5558   26.4687  -28.2858 H   0  0  0  0  0  0  0  0  0  0  0  0
   -6.8731   25.4408  -26.9716 C   0  0  0  0  0  0  0  0  0  0  0  0
   -7.5769   25.2009  -27.7251 H   0  0  0  0  0  0  0  0  0  0  0  0
   -3.6464   27.1737  -26.5375 O   0  0  0  0  0  0  0  0  0  0  0  0
   -3.2584   27.6839  -27.8330 C   0  0  0  0  0  0  0  0  0  0  0  0
   -2.3050   28.1994  -27.7158 H   0  0  0  0  0  0  0  0  0  0  0  0
   -4.0279   28.3773  -28.1732 H   0  0  0  0  0  0  0  0  0  0  0  0
   -3.1543   26.8413  -28.5170 H   0  0  0  0  0  0  0  0  0  0  0  0
  1  2  1  0  0  0  0
  1  8  2  0  0  0  0
  2  3  1  0  0  0  0
  2  5  2  0  0  0  0
  3  4  1  0  0  0  0
  3 35  1  0  0  0  0
  5  6  1  0  0  0  0
  6  7  2  0  0  0  0
  6 13  1  0  0  0  0
  7  8  1  0  0  0  0
  7 10  1  0  0  0  0
  8  9  1  0  0  0  0
  9 15  1  0  0  0  0
 10 11  2  0  0  0  0
 11 12  1  0  0  0  0
 11 13  1  0  0  0  0
 13 14  1  0  0  0  0
 15 16  1  0  0  0  0
 15 17  1  0  0  0  0
 15 18  1  0  0  0  0
 18 19  1  0  0  0  0
 18 20  1  0  0  0  0
 18 32  1  0  0  0  0
 20 21  1  0  0  0  0
 20 22  1  0  0  0  0
 20 23  1  0  0  0  0
 23 24  1  0  0  0  0
 23 25  1  0  0  0  0
 23 26  1  0  0  0  0
 26 27  1  0  0  0  0
 26 28  1  0  0  0  0
 26 29  1  0  0  0  0
 29 30  1  0  0  0  0
 29 31  1  0  0  0  0
 29 32  1  0  0  0  0
 32 33  1  0  0  0  0
 32 34  1  0  0  0  0
 35 36  1  0  0  0  0
 35 43  2  0  0  0  0
 36 37  1  0  0  0  0
 36 38  2  0  0  0  0
 38 39  1  0  0  0  0
 38 40  1  0  0  0  0
 40 41  2  0  0  0  0
 40 45  1  0  0  0  0
 41 42  1  0  0  0  0
 41 43  1  0  0  0  0
 43 44  1  0  0  0  0
 45 46  1  0  0  0  0
 46 47  1  0  0  0  0
 46 48  1  0  0  0  0
 46 49  1  0  0  0  0
M  END
$$$$
cdk2_hardcastle_28
  MOE2024           3D

 53 56  0  0  0  0  0  0  0  0999 V2000
   -7.4490   22.7400  -23.7880 N   0  0  0  0  0  0  0  0  0  0  0  0
   -8.4740   23.3220  -24.4580 C   0  0  0  0  0  0  0  0  0  0  0  0
   -8.2842   24.3135  -25.3882 N   0  0  0  0  0  0  0  0  0  0  0  0
   -9.1275   24.5143  -25.9330 H   0  0  0  0  0  0  0  0  0  0  0  0
   -9.7630   22.9220  -24.2500 N   0  0  0  0  0  0  0  0  0  0  0  0
  -10.0310   21.9340  -23.3640 C   0  0  0  0  0  0  0  0  0  0  0  0
   -9.0050   21.3010  -22.6060 C   0  0  0  0  0  0  0  0  0  0  0  0
   -7.6350   21.7760  -22.8640 C   0  0  0  0  0  0  0  0  0  0  0  0
   -6.5880   21.2310  -22.1870 O   0  0  0  0  0  0  0  0  0  0  0  0
   -9.5850   20.3700  -21.7740 N   0  0  0  0  0  0  0  0  0  0  0  0
  -10.9280   20.4780  -22.0730 C   0  0  0  0  0  0  0  0  0  0  0  0
  -11.6750   19.8637  -21.5925 H   0  0  0  0  0  0  0  0  0  0  0  0
  -11.2540   21.4190  -23.0230 N   0  0  0  0  0  0  0  0  0  0  0  0
  -12.1658   21.6675  -23.3793 H   0  0  0  0  0  0  0  0  0  0  0  0
   -5.2310   21.6010  -22.4650 C   0  0  0  0  0  0  0  0  0  0  0  0
   -5.1417   22.6872  -22.4822 H   0  0  0  0  0  0  0  0  0  0  0  0
   -4.9296   21.1964  -23.4312 H   0  0  0  0  0  0  0  0  0  0  0  0
   -4.3410   21.0280  -21.3660 C   0  0  0  0  0  0  0  0  0  0  0  0
   -4.5111   19.9606  -21.2256 H   0  0  0  0  0  0  0  0  0  0  0  0
   -2.8760   21.2220  -21.7760 C   0  0  0  0  0  0  0  0  0  0  0  0
   -2.7393   22.2491  -22.1142 H   0  0  0  0  0  0  0  0  0  0  0  0
   -2.6464   20.5371  -22.5923 H   0  0  0  0  0  0  0  0  0  0  0  0
   -1.9130   20.9520  -20.6220 C   0  0  0  0  0  0  0  0  0  0  0  0
   -0.9007   21.2107  -20.9325 H   0  0  0  0  0  0  0  0  0  0  0  0
   -1.9540   19.8944  -20.3614 H   0  0  0  0  0  0  0  0  0  0  0  0
   -2.2900   21.7830  -19.4020 C   0  0  0  0  0  0  0  0  0  0  0  0
   -2.2769   22.8410  -19.6637 H   0  0  0  0  0  0  0  0  0  0  0  0
   -1.5750   21.5982  -18.6003 H   0  0  0  0  0  0  0  0  0  0  0  0
   -3.6890   21.3900  -18.9380 C   0  0  0  0  0  0  0  0  0  0  0  0
   -3.9462   21.9427  -18.0344 H   0  0  0  0  0  0  0  0  0  0  0  0
   -3.7215   20.3203  -18.7312 H   0  0  0  0  0  0  0  0  0  0  0  0
   -4.6760   21.7300  -20.0480 C   0  0  0  0  0  0  0  0  0  0  0  0
   -5.6742   21.4252  -19.7336 H   0  0  0  0  0  0  0  0  0  0  0  0
   -4.6599   22.8075  -20.2120 H   0  0  0  0  0  0  0  0  0  0  0  0
   -7.0825   24.9498  -25.7448 C   0  0  0  0  0  0  0  0  0  0  0  0
   -6.0948   25.2404  -24.8018 C   0  0  0  0  0  0  0  0  0  0  0  0
   -6.2341   24.9840  -23.7837 H   0  0  0  0  0  0  0  0  0  0  0  0
   -4.9295   25.8826  -25.2055 C   0  0  0  0  0  0  0  0  0  0  0  0
   -4.1756   26.1070  -24.4929 H   0  0  0  0  0  0  0  0  0  0  0  0
   -4.7368   26.2441  -26.5440 C   0  0  0  0  0  0  0  0  0  0  0  0
   -5.7479   25.9637  -27.4720 C   0  0  0  0  0  0  0  0  0  0  0  0
   -5.6194   26.2506  -28.4859 H   0  0  0  0  0  0  0  0  0  0  0  0
   -6.9158   25.3191  -27.0786 C   0  0  0  0  0  0  0  0  0  0  0  0
   -7.6733   25.1070  -27.7880 H   0  0  0  0  0  0  0  0  0  0  0  0
   -3.2263   27.0843  -27.0523 S   0  0  0  0  0  0  0  0  0  0  0  0
   -2.1454   25.8778  -27.3069 N   0  0  0  0  0  0  0  0  0  0  0  0
   -0.7311   26.2314  -27.4068 C   0  0  0  0  0  0  0  0  0  0  0  0
   -0.4362   26.7645  -26.4994 H   0  0  0  0  0  0  0  0  0  0  0  0
   -0.5852   26.8677  -28.2831 H   0  0  0  0  0  0  0  0  0  0  0  0
   -0.1466   25.3147  -27.5018 H   0  0  0  0  0  0  0  0  0  0  0  0
   -2.4190   25.2773  -28.0804 H   0  0  0  0  0  0  0  0  0  0  0  0
   -3.4584   27.7280  -28.2971 O   0  0  0  0  0  0  0  0  0  0  0  0
   -2.7644   27.8975  -25.9818 O   0  0  0  0  0  0  0  0  0  0  0  0
  1  2  1  0  0  0  0
  1  8  2  0  0  0  0
  2  3  1  0  0  0  0
  2  5  2  0  0  0  0
  3  4  1  0  0  0  0
  3 35  1  0  0  0  0
  5  6  1  0  0  0  0
  6  7  2  0  0  0  0
  6 13  1  0  0  0  0
  7  8  1  0  0  0  0
  7 10  1  0  0  0  0
  8  9  1  0  0  0  0
  9 15  1  0  0  0  0
 10 11  2  0  0  0  0
 11 12  1  0  0  0  0
 11 13  1  0  0  0  0
 13 14  1  0  0  0  0
 15 16  1  0  0  0  0
 15 17  1  0  0  0  0
 15 18  1  0  0  0  0
 18 19  1  0  0  0  0
 18 20  1  0  0  0  0
 18 32  1  0  0  0  0
 20 21  1  0  0  0  0
 20 22  1  0  0  0  0
 20 23  1  0  0  0  0
 23 24  1  0  0  0  0
 23 25  1  0  0  0  0
 23 26  1  0  0  0  0
 26 27  1  0  0  0  0
 26 28  1  0  0  0  0
 26 29  1  0  0  0  0
 29 30  1  0  0  0  0
 29 31  1  0  0  0  0
 29 32  1  0  0  0  0
 32 33  1  0  0  0  0
 32 34  1  0  0  0  0
 35 36  1  0  0  0  0
 35 43  2  0  0  0  0
 36 37  1  0  0  0  0
 36 38  2  0  0  0  0
 38 39  1  0  0  0  0
 38 40  1  0  0  0  0
 40 41  2  0  0  0  0
 40 45  1  0  0  0  0
 41 42  1  0  0  0  0
 41 43  1  0  0  0  0
 43 44  1  0  0  0  0
 45 46  1  0  0  0  0
 45 52  2  0  0  0  0
 45 53  2  0  0  0  0
 46 47  1  0  0  0  0
 46 51  1  0  0  0  0
 47 48  1  0  0  0  0
 47 49  1  0  0  0  0
 47 50  1  0  0  0  0
M  END
$$$$
cdk2_hardcastle_29
  MOE2024           3D

 56 59  0  0  0  0  0  0  0  0999 V2000
   -7.4490   22.7400  -23.7880 N   0  0  0  0  0  0  0  0  0  0  0  0
   -8.4740   23.3220  -24.4580 C   0  0  0  0  0  0  0  0  0  0  0  0
   -8.2869   24.3160  -25.3860 N   0  0  0  0  0  0  0  0  0  0  0  0
   -9.1354   24.5225  -25.9205 H   0  0  0  0  0  0  0  0  0  0  0  0
   -9.7630   22.9220  -24.2500 N   0  0  0  0  0  0  0  0  0  0  0  0
  -10.0310   21.9340  -23.3640 C   0  0  0  0  0  0  0  0  0  0  0  0
   -9.0050   21.3010  -22.6060 C   0  0  0  0  0  0  0  0  0  0  0  0
   -7.6350   21.7760  -22.8640 C   0  0  0  0  0  0  0  0  0  0  0  0
   -6.5880   21.2310  -22.1870 O   0  0  0  0  0  0  0  0  0  0  0  0
   -9.5850   20.3700  -21.7740 N   0  0  0  0  0  0  0  0  0  0  0  0
  -10.9280   20.4780  -22.0730 C   0  0  0  0  0  0  0  0  0  0  0  0
  -11.6750   19.8637  -21.5925 H   0  0  0  0  0  0  0  0  0  0  0  0
  -11.2540   21.4190  -23.0230 N   0  0  0  0  0  0  0  0  0  0  0  0
  -12.1658   21.6675  -23.3793 H   0  0  0  0  0  0  0  0  0  0  0  0
   -5.2310   21.6010  -22.4650 C   0  0  0  0  0  0  0  0  0  0  0  0
   -5.1417   22.6872  -22.4822 H   0  0  0  0  0  0  0  0  0  0  0  0
   -4.9296   21.1964  -23.4312 H   0  0  0  0  0  0  0  0  0  0  0  0
   -4.3410   21.0280  -21.3660 C   0  0  0  0  0  0  0  0  0  0  0  0
   -4.5111   19.9606  -21.2256 H   0  0  0  0  0  0  0  0  0  0  0  0
   -2.8760   21.2220  -21.7760 C   0  0  0  0  0  0  0  0  0  0  0  0
   -2.7393   22.2491  -22.1142 H   0  0  0  0  0  0  0  0  0  0  0  0
   -2.6464   20.5371  -22.5923 H   0  0  0  0  0  0  0  0  0  0  0  0
   -1.9130   20.9520  -20.6220 C   0  0  0  0  0  0  0  0  0  0  0  0
   -0.9007   21.2107  -20.9325 H   0  0  0  0  0  0  0  0  0  0  0  0
   -1.9540   19.8944  -20.3614 H   0  0  0  0  0  0  0  0  0  0  0  0
   -2.2900   21.7830  -19.4020 C   0  0  0  0  0  0  0  0  0  0  0  0
   -2.2769   22.8410  -19.6637 H   0  0  0  0  0  0  0  0  0  0  0  0
   -1.5750   21.5982  -18.6003 H   0  0  0  0  0  0  0  0  0  0  0  0
   -3.6890   21.3900  -18.9380 C   0  0  0  0  0  0  0  0  0  0  0  0
   -3.9462   21.9427  -18.0344 H   0  0  0  0  0  0  0  0  0  0  0  0
   -3.7215   20.3203  -18.7312 H   0  0  0  0  0  0  0  0  0  0  0  0
   -4.6760   21.7300  -20.0480 C   0  0  0  0  0  0  0  0  0  0  0  0
   -5.6742   21.4252  -19.7336 H   0  0  0  0  0  0  0  0  0  0  0  0
   -4.6599   22.8075  -20.2120 H   0  0  0  0  0  0  0  0  0  0  0  0
   -7.0906   24.9596  -25.7489 C   0  0  0  0  0  0  0  0  0  0  0  0
   -6.0821   25.2278  -24.8208 C   0  0  0  0  0  0  0  0  0  0  0  0
   -6.1993   24.9495  -23.8059 H   0  0  0  0  0  0  0  0  0  0  0  0
   -4.9249   25.8782  -25.2349 C   0  0  0  0  0  0  0  0  0  0  0  0
   -4.1548   26.0856  -24.5347 H   0  0  0  0  0  0  0  0  0  0  0  0
   -4.7606   26.2701  -26.5685 C   0  0  0  0  0  0  0  0  0  0  0  0
   -5.7926   26.0132  -27.4800 C   0  0  0  0  0  0  0  0  0  0  0  0
   -5.6849   26.3239  -28.4892 H   0  0  0  0  0  0  0  0  0  0  0  0
   -6.9522   25.3604  -27.0768 C   0  0  0  0  0  0  0  0  0  0  0  0
   -7.7251   25.1663  -27.7746 H   0  0  0  0  0  0  0  0  0  0  0  0
   -3.2566   27.1162  -27.0929 S   0  0  0  0  0  0  0  0  0  0  0  0
   -2.1353   25.9074  -27.3143 N   0  0  0  0  0  0  0  0  0  0  0  0
   -0.7279   26.3168  -27.4094 C   0  0  0  0  0  0  0  0  0  0  0  0
   -0.5112   26.9644  -26.5684 H   0  0  0  0  0  0  0  0  0  0  0  0
   -0.5946   26.8436  -28.3464 H   0  0  0  0  0  0  0  0  0  0  0  0
   -0.1074   25.4314  -27.3630 H   0  0  0  0  0  0  0  0  0  0  0  0
   -2.4426   24.8484  -28.2866 C   0  0  0  0  0  0  0  0  0  0  0  0
   -1.6841   24.0801  -28.2077 H   0  0  0  0  0  0  0  0  0  0  0  0
   -2.4459   25.2918  -29.2752 H   0  0  0  0  0  0  0  0  0  0  0  0
   -3.4110   24.4315  -28.0422 H   0  0  0  0  0  0  0  0  0  0  0  0
   -3.4965   27.7378  -28.3511 O   0  0  0  0  0  0  0  0  0  0  0  0
   -2.8159   27.9631  -26.0371 O   0  0  0  0  0  0  0  0  0  0  0  0
  1  2  1  0  0  0  0
  1  8  2  0  0  0  0
  2  3  1  0  0  0  0
  2  5  2  0  0  0  0
  3  4  1  0  0  0  0
  3 35  1  0  0  0  0
  5  6  1  0  0  0  0
  6  7  2  0  0  0  0
  6 13  1  0  0  0  0
  7  8  1  0  0  0  0
  7 10  1  0  0  0  0
  8  9  1  0  0  0  0
  9 15  1  0  0  0  0
 10 11  2  0  0  0  0
 11 12  1  0  0  0  0
 11 13  1  0  0  0  0
 13 14  1  0  0  0  0
 15 16  1  0  0  0  0
 15 17  1  0  0  0  0
 15 18  1  0  0  0  0
 18 19  1  0  0  0  0
 18 20  1  0  0  0  0
 18 32  1  0  0  0  0
 20 21  1  0  0  0  0
 20 22  1  0  0  0  0
 20 23  1  0  0  0  0
 23 24  1  0  0  0  0
 23 25  1  0  0  0  0
 23 26  1  0  0  0  0
 26 27  1  0  0  0  0
 26 28  1  0  0  0  0
 26 29  1  0  0  0  0
 29 30  1  0  0  0  0
 29 31  1  0  0  0  0
 29 32  1  0  0  0  0
 32 33  1  0  0  0  0
 32 34  1  0  0  0  0
 35 36  1  0  0  0  0
 35 43  2  0  0  0  0
 36 37  1  0  0  0  0
 36 38  2  0  0  0  0
 38 39  1  0  0  0  0
 38 40  1  0  0  0  0
 40 41  2  0  0  0  0
 40 45  1  0  0  0  0
 41 42  1  0  0  0  0
 41 43  1  0  0  0  0
 43 44  1  0  0  0  0
 45 46  1  0  0  0  0
 45 55  2  0  0  0  0
 45 56  2  0  0  0  0
 46 47  1  0  0  0  0
 46 51  1  0  0  0  0
 47 48  1  0  0  0  0
 47 49  1  0  0  0  0
 47 50  1  0  0  0  0
 51 52  1  0  0  0  0
 51 53  1  0  0  0  0
 51 54  1  0  0  0  0
M  END
$$$$
cdk2_hardcastle_30
  MOE2024           3D

 51 54  0  0  0  0  0  0  0  0999 V2000
   -7.4490   22.7400  -23.7880 N   0  0  0  0  0  0  0  0  0  0  0  0
   -8.4740   23.3220  -24.4580 C   0  0  0  0  0  0  0  0  0  0  0  0
   -8.2818   24.3121  -25.3895 N   0  0  0  0  0  0  0  0  0  0  0  0
   -9.1211   24.5091  -25.9422 H   0  0  0  0  0  0  0  0  0  0  0  0
   -9.7630   22.9220  -24.2500 N   0  0  0  0  0  0  0  0  0  0  0  0
  -10.0310   21.9340  -23.3640 C   0  0  0  0  0  0  0  0  0  0  0  0
   -9.0050   21.3010  -22.6060 C   0  0  0  0  0  0  0  0  0  0  0  0
   -7.6350   21.7760  -22.8640 C   0  0  0  0  0  0  0  0  0  0  0  0
   -6.5880   21.2310  -22.1870 O   0  0  0  0  0  0  0  0  0  0  0  0
   -9.5850   20.3700  -21.7740 N   0  0  0  0  0  0  0  0  0  0  0  0
  -10.9280   20.4780  -22.0730 C   0  0  0  0  0  0  0  0  0  0  0  0
  -11.6750   19.8637  -21.5925 H   0  0  0  0  0  0  0  0  0  0  0  0
  -11.2540   21.4190  -23.0230 N   0  0  0  0  0  0  0  0  0  0  0  0
  -12.1658   21.6675  -23.3793 H   0  0  0  0  0  0  0  0  0  0  0  0
   -5.2310   21.6010  -22.4650 C   0  0  0  0  0  0  0  0  0  0  0  0
   -5.1417   22.6872  -22.4822 H   0  0  0  0  0  0  0  0  0  0  0  0
   -4.9296   21.1964  -23.4312 H   0  0  0  0  0  0  0  0  0  0  0  0
   -4.3410   21.0280  -21.3660 C   0  0  0  0  0  0  0  0  0  0  0  0
   -4.5111   19.9606  -21.2256 H   0  0  0  0  0  0  0  0  0  0  0  0
   -2.8760   21.2220  -21.7760 C   0  0  0  0  0  0  0  0  0  0  0  0
   -2.7393   22.2491  -22.1142 H   0  0  0  0  0  0  0  0  0  0  0  0
   -2.6464   20.5371  -22.5923 H   0  0  0  0  0  0  0  0  0  0  0  0
   -1.9130   20.9520  -20.6220 C   0  0  0  0  0  0  0  0  0  0  0  0
   -0.9007   21.2107  -20.9325 H   0  0  0  0  0  0  0  0  0  0  0  0
   -1.9540   19.8944  -20.3614 H   0  0  0  0  0  0  0  0  0  0  0  0
   -2.2900   21.7830  -19.4020 C   0  0  0  0  0  0  0  0  0  0  0  0
   -2.2769   22.8410  -19.6637 H   0  0  0  0  0  0  0  0  0  0  0  0
   -1.5750   21.5982  -18.6003 H   0  0  0  0  0  0  0  0  0  0  0  0
   -3.6890   21.3900  -18.9380 C   0  0  0  0  0  0  0  0  0  0  0  0
   -3.9462   21.9427  -18.0344 H   0  0  0  0  0  0  0  0  0  0  0  0
   -3.7215   20.3203  -18.7312 H   0  0  0  0  0  0  0  0  0  0  0  0
   -4.6760   21.7300  -20.0480 C   0  0  0  0  0  0  0  0  0  0  0  0
   -5.6742   21.4252  -19.7336 H   0  0  0  0  0  0  0  0  0  0  0  0
   -4.6599   22.8075  -20.2120 H   0  0  0  0  0  0  0  0  0  0  0  0
   -7.0813   24.9617  -25.7258 C   0  0  0  0  0  0  0  0  0  0  0  0
   -6.1253   25.2819  -24.7599 C   0  0  0  0  0  0  0  0  0  0  0  0
   -6.2904   25.0364  -23.7428 H   0  0  0  0  0  0  0  0  0  0  0  0
   -4.9611   25.9409  -25.1397 C   0  0  0  0  0  0  0  0  0  0  0  0
   -4.2363   26.1940  -24.4069 H   0  0  0  0  0  0  0  0  0  0  0  0
   -4.7376   26.2849  -26.4780 C   0  0  0  0  0  0  0  0  0  0  0  0
   -5.7169   25.9756  -27.4292 C   0  0  0  0  0  0  0  0  0  0  0  0
   -5.5658   26.2535  -28.4426 H   0  0  0  0  0  0  0  0  0  0  0  0
   -6.8840   25.3158  -27.0595 C   0  0  0  0  0  0  0  0  0  0  0  0
   -7.6182   25.0816  -27.7864 H   0  0  0  0  0  0  0  0  0  0  0  0
   -3.2313   27.1385  -26.9645 S   0  0  0  0  0  0  0  0  0  0  0  0
   -2.1045   25.8234  -27.3480 C   0  0  0  0  0  0  0  0  0  0  0  0
   -1.9110   25.1706  -26.5104 H   0  0  0  0  0  0  0  0  0  0  0  0
   -1.1349   26.1893  -27.6504 H   0  0  0  0  0  0  0  0  0  0  0  0
   -2.4395   25.1987  -28.1621 H   0  0  0  0  0  0  0  0  0  0  0  0
   -3.4750   27.8766  -28.1562 O   0  0  0  0  0  0  0  0  0  0  0  0
   -2.7150   27.8551  -25.8490 O   0  0  0  0  0  0  0  0  0  0  0  0
  1  2  1  0  0  0  0
  1  8  2  0  0  0  0
  2  3  1  0  0  0  0
  2  5  2  0  0  0  0
  3  4  1  0  0  0  0
  3 35  1  0  0  0  0
  5  6  1  0  0  0  0
  6  7  2  0  0  0  0
  6 13  1  0  0  0  0
  7  8  1  0  0  0  0
  7 10  1  0  0  0  0
  8  9  1  0  0  0  0
  9 15  1  0  0  0  0
 10 11  2  0  0  0  0
 11 12  1  0  0  0  0
 11 13  1  0  0  0  0
 13 14  1  0  0  0  0
 15 16  1  0  0  0  0
 15 17  1  0  0  0  0
 15 18  1  0  0  0  0
 18 19  1  0  0  0  0
 18 20  1  0  0  0  0
 18 32  1  0  0  0  0
 20 21  1  0  0  0  0
 20 22  1  0  0  0  0
 20 23  1  0  0  0  0
 23 24  1  0  0  0  0
 23 25  1  0  0  0  0
 23 26  1  0  0  0  0
 26 27  1  0  0  0  0
 26 28  1  0  0  0  0
 26 29  1  0  0  0  0
 29 30  1  0  0  0  0
 29 31  1  0  0  0  0
 29 32  1  0  0  0  0
 32 33  1  0  0  0  0
 32 34  1  0  0  0  0
 35 36  1  0  0  0  0
 35 43  2  0  0  0  0
 36 37  1  0  0  0  0
 36 38  2  0  0  0  0
 38 39  1  0  0  0  0
 38 40  1  0  0  0  0
 40 41  2  0  0  0  0
 40 45  1  0  0  0  0
 41 42  1  0  0  0  0
 41 43  1  0  0  0  0
 43 44  1  0  0  0  0
 45 46  1  0  0  0  0
 45 50  2  0  0  0  0
 45 51  2  0  0  0  0
 46 47  1  0  0  0  0
 46 48  1  0  0  0  0
 46 49  1  0  0  0  0
M  END
$$$$
cdk2_hardcastle_31
  MOE2024           3D
cdk2_hardcastle_31
 50 53  0  0  0  0  0  0  0  0999 V2000
   -7.4490   22.7400  -23.7880 N   0  0  0  0  0  0  0  0  0  0  0  0
   -8.4740   23.3220  -24.4580 C   0  0  0  0  0  0  0  0  0  0  0  0
   -8.2876   24.3010  -25.3755 N   0  0  0  0  0  0  0  0  0  0  0  0
   -9.1353   24.4917  -25.9239 H   0  0  0  0  0  0  0  0  0  0  0  0
   -9.7630   22.9220  -24.2500 N   0  0  0  0  0  0  0  0  0  0  0  0
  -10.0310   21.9340  -23.3640 C   0  0  0  0  0  0  0  0  0  0  0  0
   -9.0050   21.3010  -22.6060 C   0  0  0  0  0  0  0  0  0  0  0  0
   -7.6350   21.7760  -22.8640 C   0  0  0  0  0  0  0  0  0  0  0  0
   -6.5880   21.2310  -22.1870 O   0  0  0  0  0  0  0  0  0  0  0  0
   -9.5850   20.3700  -21.7740 N   0  0  0  0  0  0  0  0  0  0  0  0
  -10.9280   20.4780  -22.0730 C   0  0  0  0  0  0  0  0  0  0  0  0
  -11.6750   19.8637  -21.5925 H   0  0  0  0  0  0  0  0  0  0  0  0
  -11.2540   21.4190  -23.0230 N   0  0  0  0  0  0  0  0  0  0  0  0
  -12.1658   21.6675  -23.3793 H   0  0  0  0  0  0  0  0  0  0  0  0
   -5.2310   21.6010  -22.4650 C   0  0  0  0  0  0  0  0  0  0  0  0
   -5.1417   22.6872  -22.4822 H   0  0  0  0  0  0  0  0  0  0  0  0
   -4.9296   21.1964  -23.4312 H   0  0  0  0  0  0  0  0  0  0  0  0
   -4.3410   21.0280  -21.3660 C   0  0  0  0  0  0  0  0  0  0  0  0
   -4.5111   19.9606  -21.2256 H   0  0  0  0  0  0  0  0  0  0  0  0
   -2.8760   21.2220  -21.7760 C   0  0  0  0  0  0  0  0  0  0  0  0
   -2.7393   22.2491  -22.1142 H   0  0  0  0  0  0  0  0  0  0  0  0
   -2.6464   20.5371  -22.5923 H   0  0  0  0  0  0  0  0  0  0  0  0
   -1.9130   20.9520  -20.6220 C   0  0  0  0  0  0  0  0  0  0  0  0
   -0.9007   21.2107  -20.9325 H   0  0  0  0  0  0  0  0  0  0  0  0
   -1.9540   19.8944  -20.3614 H   0  0  0  0  0  0  0  0  0  0  0  0
   -2.2900   21.7830  -19.4020 C   0  0  0  0  0  0  0  0  0  0  0  0
   -2.2769   22.8410  -19.6637 H   0  0  0  0  0  0  0  0  0  0  0  0
   -1.5750   21.5982  -18.6003 H   0  0  0  0  0  0  0  0  0  0  0  0
   -3.6890   21.3900  -18.9380 C   0  0  0  0  0  0  0  0  0  0  0  0
   -3.9462   21.9427  -18.0344 H   0  0  0  0  0  0  0  0  0  0  0  0
   -3.7215   20.3203  -18.7312 H   0  0  0  0  0  0  0  0  0  0  0  0
   -4.6760   21.7300  -20.0480 C   0  0  0  0  0  0  0  0  0  0  0  0
   -5.6742   21.4252  -19.7336 H   0  0  0  0  0  0  0  0  0  0  0  0
   -4.6599   22.8075  -20.2120 H   0  0  0  0  0  0  0  0  0  0  0  0
   -7.1244   25.0041  -25.6767 C   0  0  0  0  0  0  0  0  0  0  0  0
   -6.1696   25.2997  -24.6907 C   0  0  0  0  0  0  0  0  0  0  0  0
   -6.3318   24.9878  -23.6884 H   0  0  0  0  0  0  0  0  0  0  0  0
   -5.0276   26.0069  -25.0308 C   0  0  0  0  0  0  0  0  0  0  0  0
   -4.3134   26.2140  -24.2700 H   0  0  0  0  0  0  0  0  0  0  0  0
   -4.8690   26.4203  -26.3663 C   0  0  0  0  0  0  0  0  0  0  0  0
   -3.6951   27.1490  -26.7272 S   0  2  0  0  0  0  0  0  0  0  0  0
   -3.2027   28.7185  -26.0342 C   0  0  0  0  0  0  0  0  0  0  0  0
   -3.9367   29.0347  -25.2930 H   0  0  0  0  0  0  0  0  0  0  0  0
   -3.1435   29.4635  -26.8277 H   0  0  0  0  0  0  0  0  0  0  0  0
   -2.2273   28.6158  -25.5588 H   0  0  0  0  0  0  0  0  0  0  0  0
   -2.7963   26.2474  -27.9784 O   0  0  0  0  0  0  0  0  0  0  0  0
   -5.8269   26.1408  -27.3592 C   0  0  0  0  0  0  0  0  0  0  0  0
   -5.7098   26.4467  -28.3731 H   0  0  0  0  0  0  0  0  0  0  0  0
   -6.9616   25.4296  -27.0012 C   0  0  0  0  0  0  0  0  0  0  0  0
   -7.7036   25.1933  -27.7239 H   0  0  0  0  0  0  0  0  0  0  0  0
  1  2  1  0  0  0  0
  1  8  2  0  0  0  0
  2  3  1  0  0  0  0
  2  5  2  0  0  0  0
  3  4  1  0  0  0  0
  3 35  1  0  0  0  0
  5  6  1  0  0  0  0
  6  7  2  0  0  0  0
  6 13  1  0  0  0  0
  7  8  1  0  0  0  0
  7 10  1  0  0  0  0
  8  9  1  0  0  0  0
  9 15  1  0  0  0  0
 10 11  2  0  0  0  0
 11 12  1  0  0  0  0
 11 13  1  0  0  0  0
 13 14  1  0  0  0  0
 15 16  1  0  0  0  0
 15 17  1  0  0  0  0
 15 18  1  0  0  0  0
 18 19  1  0  0  0  0
 18 20  1  0  0  0  0
 18 32  1  0  0  0  0
 20 21  1  0  0  0  0
 20 22  1  0  0  0  0
 20 23  1  0  0  0  0
 23 24  1  0  0  0  0
 23 25  1  0  0  0  0
 23 26  1  0  0  0  0
 26 27  1  0  0  0  0
 26 28  1  0  0  0  0
 26 29  1  0  0  0  0
 29 30  1  0  0  0  0
 29 31  1  0  0  0  0
 29 32  1  0  0  0  0
 32 33  1  0  0  0  0
 32 34  1  0  0  0  0
 35 36  1  0  0  0  0
 35 49  2  0  0  0  0
 36 37  1  0  0  0  0
 36 38  2  0  0  0  0
 38 39  1  0  0  0  0
 38 40  1  0  0  0  0
 40 41  1  0  0  0  0
 40 47  2  0  0  0  0
 41 42  1  0  0  0  0
 41 46  2  0  0  0  0
 42 43  1  0  0  0  0
 42 44  1  0  0  0  0
 42 45  1  0  0  0  0
 47 48  1  0  0  0  0
 47 49  1  0  0  0  0
 49 50  1  0  0  0  0
M  CHG  1  41   2
M  END
$$$$
cdk2_hardcastle_32
  MOE2024           3D

 54 57  0  0  0  0  0  0  0  0999 V2000
   -7.4490   22.7400  -23.7880 N   0  0  0  0  0  0  0  0  0  0  0  0
   -8.4740   23.3220  -24.4580 C   0  0  0  0  0  0  0  0  0  0  0  0
   -8.2638   24.3148  -25.3841 N   0  0  0  0  0  0  0  0  0  0  0  0
   -9.0835   24.5060  -25.9676 H   0  0  0  0  0  0  0  0  0  0  0  0
   -9.7630   22.9220  -24.2500 N   0  0  0  0  0  0  0  0  0  0  0  0
  -10.0310   21.9340  -23.3640 C   0  0  0  0  0  0  0  0  0  0  0  0
   -9.0050   21.3010  -22.6060 C   0  0  0  0  0  0  0  0  0  0  0  0
   -7.6350   21.7760  -22.8640 C   0  0  0  0  0  0  0  0  0  0  0  0
   -6.5880   21.2310  -22.1870 O   0  0  0  0  0  0  0  0  0  0  0  0
   -9.5850   20.3700  -21.7740 N   0  0  0  0  0  0  0  0  0  0  0  0
  -10.9280   20.4780  -22.0730 C   0  0  0  0  0  0  0  0  0  0  0  0
  -11.6750   19.8637  -21.5925 H   0  0  0  0  0  0  0  0  0  0  0  0
  -11.2540   21.4190  -23.0230 N   0  0  0  0  0  0  0  0  0  0  0  0
  -12.1658   21.6675  -23.3793 H   0  0  0  0  0  0  0  0  0  0  0  0
   -5.2310   21.6010  -22.4650 C   0  0  0  0  0  0  0  0  0  0  0  0
   -5.1417   22.6872  -22.4822 H   0  0  0  0  0  0  0  0  0  0  0  0
   -4.9296   21.1964  -23.4312 H   0  0  0  0  0  0  0  0  0  0  0  0
   -4.3410   21.0280  -21.3660 C   0  0  0  0  0  0  0  0  0  0  0  0
   -4.5111   19.9606  -21.2256 H   0  0  0  0  0  0  0  0  0  0  0  0
   -2.8760   21.2220  -21.7760 C   0  0  0  0  0  0  0  0  0  0  0  0
   -2.7393   22.2491  -22.1142 H   0  0  0  0  0  0  0  0  0  0  0  0
   -2.6464   20.5371  -22.5923 H   0  0  0  0  0  0  0  0  0  0  0  0
   -1.9130   20.9520  -20.6220 C   0  0  0  0  0  0  0  0  0  0  0  0
   -0.9007   21.2107  -20.9325 H   0  0  0  0  0  0  0  0  0  0  0  0
   -1.9540   19.8944  -20.3614 H   0  0  0  0  0  0  0  0  0  0  0  0
   -2.2900   21.7830  -19.4020 C   0  0  0  0  0  0  0  0  0  0  0  0
   -2.2769   22.8410  -19.6637 H   0  0  0  0  0  0  0  0  0  0  0  0
   -1.5750   21.5982  -18.6003 H   0  0  0  0  0  0  0  0  0  0  0  0
   -3.6890   21.3900  -18.9380 C   0  0  0  0  0  0  0  0  0  0  0  0
   -3.9462   21.9427  -18.0344 H   0  0  0  0  0  0  0  0  0  0  0  0
   -3.7215   20.3203  -18.7312 H   0  0  0  0  0  0  0  0  0  0  0  0
   -4.6760   21.7300  -20.0480 C   0  0  0  0  0  0  0  0  0  0  0  0
   -5.6742   21.4252  -19.7336 H   0  0  0  0  0  0  0  0  0  0  0  0
   -4.6599   22.8075  -20.2120 H   0  0  0  0  0  0  0  0  0  0  0  0
   -7.0303   24.9122  -25.7023 C   0  0  0  0  0  0  0  0  0  0  0  0
   -6.1263   25.2780  -24.7003 C   0  0  0  0  0  0  0  0  0  0  0  0
   -6.3665   25.1131  -23.6813 H   0  0  0  0  0  0  0  0  0  0  0  0
   -4.9115   25.8624  -25.0467 C   0  0  0  0  0  0  0  0  0  0  0  0
   -4.2237   26.1365  -24.2857 H   0  0  0  0  0  0  0  0  0  0  0  0
   -4.5869   26.0984  -26.3882 C   0  0  0  0  0  0  0  0  0  0  0  0
   -5.5159   25.7320  -27.3688 C   0  0  0  0  0  0  0  0  0  0  0  0
   -5.2137   25.9302  -28.6924 O   0  0  0  0  0  0  0  0  0  0  0  0
   -5.8883   26.9977  -29.4030 C   0  0  0  0  0  0  0  0  0  0  0  0
   -6.9609   26.8035  -29.3929 H   0  0  0  0  0  0  0  0  0  0  0  0
   -5.5119   27.0115  -30.4261 H   0  0  0  0  0  0  0  0  0  0  0  0
   -5.6601   27.9412  -28.9038 H   0  0  0  0  0  0  0  0  0  0  0  0
   -6.7356   25.1467  -27.0427 C   0  0  0  0  0  0  0  0  0  0  0  0
   -7.4169   24.8677  -27.8027 H   0  0  0  0  0  0  0  0  0  0  0  0
   -3.0210   26.8437  -26.8529 S   0  0  0  0  0  0  0  0  0  0  0  0
   -2.3489   25.7776  -27.8752 N   0  0  0  0  0  0  0  0  0  0  0  0
   -2.0805   24.8942  -27.4587 H   0  0  0  0  0  0  0  0  0  0  0  0
   -2.8739   25.6629  -28.7385 H   0  0  0  0  0  0  0  0  0  0  0  0
   -3.2828   28.0470  -27.5580 O   0  0  0  0  0  0  0  0  0  0  0  0
   -2.2019   26.9295  -25.6973 O   0  0  0  0  0  0  0  0  0  0  0  0
  1  2  1  0  0  0  0
  1  8  2  0  0  0  0
  2  3  1  0  0  0  0
  2  5  2  0  0  0  0
  3  4  1  0  0  0  0
  3 35  1  0  0  0  0
  5  6  1  0  0  0  0
  6  7  2  0  0  0  0
  6 13  1  0  0  0  0
  7  8  1  0  0  0  0
  7 10  1  0  0  0  0
  8  9  1  0  0  0  0
  9 15  1  0  0  0  0
 10 11  2  0  0  0  0
 11 12  1  0  0  0  0
 11 13  1  0  0  0  0
 13 14  1  0  0  0  0
 15 16  1  0  0  0  0
 15 17  1  0  0  0  0
 15 18  1  0  0  0  0
 18 19  1  0  0  0  0
 18 20  1  0  0  0  0
 18 32  1  0  0  0  0
 20 21  1  0  0  0  0
 20 22  1  0  0  0  0
 20 23  1  0  0  0  0
 23 24  1  0  0  0  0
 23 25  1  0  0  0  0
 23 26  1  0  0  0  0
 26 27  1  0  0  0  0
 26 28  1  0  0  0  0
 26 29  1  0  0  0  0
 29 30  1  0  0  0  0
 29 31  1  0  0  0  0
 29 32  1  0  0  0  0
 32 33  1  0  0  0  0
 32 34  1  0  0  0  0
 35 36  1  0  0  0  0
 35 47  2  0  0  0  0
 36 37  1  0  0  0  0
 36 38  2  0  0  0  0
 38 39  1  0  0  0  0
 38 40  1  0  0  0  0
 40 41  2  0  0  0  0
 40 49  1  0  0  0  0
 41 42  1  0  0  0  0
 41 47  1  0  0  0  0
 42 43  1  0  0  0  0
 43 44  1  0  0  0  0
 43 45  1  0  0  0  0
 43 46  1  0  0  0  0
 47 48  1  0  0  0  0
 49 50  1  0  0  0  0
 49 53  2  0  0  0  0
 49 54  2  0  0  0  0
 50 51  1  0  0  0  0
 50 52  1  0  0  0  0
M  END
$$$$
cdk2_hardcastle_33_1oiu
  MOE2024           3D

 50 53  0  0  0  0  0  0  0  0999 V2000
   -7.1400   22.6220  -23.6210 N   0  0  0  0  0  0  0  0  0  0  0  0
   -8.1310   23.2260  -24.3170 C   0  0  0  0  0  0  0  0  0  0  0  0
   -7.8550   24.2270  -25.1810 N   0  0  0  0  0  0  0  0  0  0  0  0
   -8.6011   24.5357  -25.7878 H   0  0  0  0  0  0  0  0  0  0  0  0
   -9.4210   22.8580  -24.1610 N   0  0  0  0  0  0  0  0  0  0  0  0
   -9.7520   21.8620  -23.3130 C   0  0  0  0  0  0  0  0  0  0  0  0
   -8.7700   21.1680  -22.5340 C   0  0  0  0  0  0  0  0  0  0  0  0
   -7.3870   21.6200  -22.7410 C   0  0  0  0  0  0  0  0  0  0  0  0
   -6.3740   21.0360  -22.0610 O   0  0  0  0  0  0  0  0  0  0  0  0
   -9.3960   20.2180  -21.7510 N   0  0  0  0  0  0  0  0  0  0  0  0
  -10.7280   20.3830  -22.1000 C   0  0  0  0  0  0  0  0  0  0  0  0
  -11.5100   19.7757  -21.6686 H   0  0  0  0  0  0  0  0  0  0  0  0
  -11.0020   21.3800  -23.0420 N   0  0  0  0  0  0  0  0  0  0  0  0
  -11.8918   21.6686  -23.4228 H   0  0  0  0  0  0  0  0  0  0  0  0
   -5.0540   21.5230  -22.2720 C   0  0  0  0  0  0  0  0  0  0  0  0
   -5.0570   22.6129  -22.2887 H   0  0  0  0  0  0  0  0  0  0  0  0
   -4.6644   21.1463  -23.2177 H   0  0  0  0  0  0  0  0  0  0  0  0
   -4.2000   21.0250  -21.1250 C   0  0  0  0  0  0  0  0  0  0  0  0
   -4.3068   19.9482  -20.9942 H   0  0  0  0  0  0  0  0  0  0  0  0
   -2.7430   21.3530  -21.4420 C   0  0  0  0  0  0  0  0  0  0  0  0
   -2.6359   22.4283  -21.5848 H   0  0  0  0  0  0  0  0  0  0  0  0
   -2.4441   20.8340  -22.3527 H   0  0  0  0  0  0  0  0  0  0  0  0
   -1.8520   20.9020  -20.2830 C   0  0  0  0  0  0  0  0  0  0  0  0
   -0.8231   21.1935  -20.4937 H   0  0  0  0  0  0  0  0  0  0  0  0
   -1.9111   19.8174  -20.1927 H   0  0  0  0  0  0  0  0  0  0  0  0
   -2.2850   21.5330  -18.9630 C   0  0  0  0  0  0  0  0  0  0  0  0
   -2.1075   22.6072  -19.0141 H   0  0  0  0  0  0  0  0  0  0  0  0
   -1.6883   21.1040  -18.1580 H   0  0  0  0  0  0  0  0  0  0  0  0
   -3.7650   21.2940  -18.6580 C   0  0  0  0  0  0  0  0  0  0  0  0
   -4.0439   21.8730  -17.7776 H   0  0  0  0  0  0  0  0  0  0  0  0
   -3.9197   20.2335  -18.4594 H   0  0  0  0  0  0  0  0  0  0  0  0
   -4.6480   21.7140  -19.8290 C   0  0  0  0  0  0  0  0  0  0  0  0
   -5.6803   21.4367  -19.6154 H   0  0  0  0  0  0  0  0  0  0  0  0
   -4.5811   22.7944  -19.9573 H   0  0  0  0  0  0  0  0  0  0  0  0
   -5.8290   25.0860  -24.2030 C   0  0  0  0  0  0  0  0  0  0  0  0
   -6.1279   24.7645  -23.2162 H   0  0  0  0  0  0  0  0  0  0  0  0
   -4.6130   25.7390  -24.3890 C   0  0  0  0  0  0  0  0  0  0  0  0
   -3.9647   25.9208  -23.5445 H   0  0  0  0  0  0  0  0  0  0  0  0
   -4.2290   26.1600  -25.6660 C   0  0  0  0  0  0  0  0  0  0  0  0
   -3.2811   26.6589  -25.8043 H   0  0  0  0  0  0  0  0  0  0  0  0
   -5.0610   25.9400  -26.7600 C   0  0  0  0  0  0  0  0  0  0  0  0
   -6.2780   25.2880  -26.5660 C   0  0  0  0  0  0  0  0  0  0  0  0
   -6.9338   25.1205  -27.4076 H   0  0  0  0  0  0  0  0  0  0  0  0
   -6.6580   24.8500  -25.2990 C   0  0  0  0  0  0  0  0  0  0  0  0
   -4.6170   26.4280  -28.2360 S   0  0  0  0  0  0  0  0  0  0  0  0
   -5.6500   26.1680  -29.1880 O   0  0  0  0  0  0  0  0  0  0  0  0
   -3.4270   25.7140  -28.5910 O   0  0  0  0  0  0  0  0  0  0  0  0
   -4.3230   27.9980  -28.2020 N   0  0  0  0  0  0  0  0  0  0  0  0
   -5.1668   28.4931  -27.9511 H   0  0  0  0  0  0  0  0  0  0  0  0
   -4.0126   28.3022  -29.1137 H   0  0  0  0  0  0  0  0  0  0  0  0
  1  2  1  0  0  0  0
  1  8  2  0  0  0  0
  2  3  1  0  0  0  0
  2  5  2  0  0  0  0
  3  4  1  0  0  0  0
  3 44  1  0  0  0  0
  5  6  1  0  0  0  0
  6  7  2  0  0  0  0
  6 13  1  0  0  0  0
  7  8  1  0  0  0  0
  7 10  1  0  0  0  0
  8  9  1  0  0  0  0
  9 15  1  0  0  0  0
 10 11  2  0  0  0  0
 11 12  1  0  0  0  0
 11 13  1  0  0  0  0
 13 14  1  0  0  0  0
 15 16  1  0  0  0  0
 15 17  1  0  0  0  0
 15 18  1  0  0  0  0
 18 19  1  0  0  0  0
 18 20  1  0  0  0  0
 18 32  1  0  0  0  0
 20 21  1  0  0  0  0
 20 22  1  0  0  0  0
 20 23  1  0  0  0  0
 23 24  1  0  0  0  0
 23 25  1  0  0  0  0
 23 26  1  0  0  0  0
 26 27  1  0  0  0  0
 26 28  1  0  0  0  0
 26 29  1  0  0  0  0
 29 30  1  0  0  0  0
 29 31  1  0  0  0  0
 29 32  1  0  0  0  0
 32 33  1  0  0  0  0
 32 34  1  0  0  0  0
 35 36  1  0  0  0  0
 35 37  1  0  0  0  0
 35 44  2  0  0  0  0
 37 38  1  0  0  0  0
 37 39  2  0  0  0  0
 39 40  1  0  0  0  0
 39 41  1  0  0  0  0
 41 42  2  0  0  0  0
 41 45  1  0  0  0  0
 42 43  1  0  0  0  0
 42 44  1  0  0  0  0
 45 46  2  0  0  0  0
 45 47  2  0  0  0  0
 45 48  1  0  0  0  0
 48 49  1  0  0  0  0
 48 50  1  0  0  0  0
M  END
$$$$
cdk2_hardcastle_34_1oiy
  MOE2024           3D

 49 52  0  0  0  0  0  0  0  0999 V2000
   -7.5390   22.7200  -23.9160 N   0  0  0  0  0  0  0  0  0  0  0  0
   -8.6260   23.3150  -24.4550 C   0  0  0  0  0  0  0  0  0  0  0  0
   -8.4190   24.3680  -25.2950 N   0  0  0  0  0  0  0  0  0  0  0  0
   -9.1994   24.7945  -25.7737 H   0  0  0  0  0  0  0  0  0  0  0  0
   -9.8770   22.8680  -24.1600 N   0  0  0  0  0  0  0  0  0  0  0  0
  -10.0420   21.8210  -23.3210 C   0  0  0  0  0  0  0  0  0  0  0  0
   -8.9440   21.1630  -22.7090 C   0  0  0  0  0  0  0  0  0  0  0  0
   -7.6210   21.6980  -23.0610 C   0  0  0  0  0  0  0  0  0  0  0  0
   -6.5050   21.1430  -22.5290 O   0  0  0  0  0  0  0  0  0  0  0  0
   -9.4180   20.1500  -21.8860 N   0  0  0  0  0  0  0  0  0  0  0  0
  -10.7750   20.2390  -22.0430 C   0  0  0  0  0  0  0  0  0  0  0  0
  -11.4594   19.5781  -21.5319 H   0  0  0  0  0  0  0  0  0  0  0  0
  -11.2090   21.2310  -22.8990 N   0  0  0  0  0  0  0  0  0  0  0  0
  -12.1574   21.4668  -23.1541 H   0  0  0  0  0  0  0  0  0  0  0  0
   -5.2040   21.6960  -22.7620 C   0  0  0  0  0  0  0  0  0  0  0  0
   -5.2486   22.7846  -22.7309 H   0  0  0  0  0  0  0  0  0  0  0  0
   -4.8292   21.3754  -23.7340 H   0  0  0  0  0  0  0  0  0  0  0  0
   -4.2940   21.1760  -21.6510 C   0  0  0  0  0  0  0  0  0  0  0  0
   -4.4098   20.1012  -21.5110 H   0  0  0  0  0  0  0  0  0  0  0  0
   -2.8370   21.3960  -22.0290 C   0  0  0  0  0  0  0  0  0  0  0  0
   -2.6858   22.4409  -22.3001 H   0  0  0  0  0  0  0  0  0  0  0  0
   -2.5816   20.7601  -22.8767 H   0  0  0  0  0  0  0  0  0  0  0  0
   -1.9540   21.0480  -20.8550 C   0  0  0  0  0  0  0  0  0  0  0  0
   -0.9067   21.1716  -21.1308 H   0  0  0  0  0  0  0  0  0  0  0  0
   -2.1307   20.0158  -20.5528 H   0  0  0  0  0  0  0  0  0  0  0  0
   -2.3000   21.9870  -19.7100 C   0  0  0  0  0  0  0  0  0  0  0  0
   -2.2689   23.0192  -20.0588 H   0  0  0  0  0  0  0  0  0  0  0  0
   -1.5845   21.8561  -18.8982 H   0  0  0  0  0  0  0  0  0  0  0  0
   -3.7020   21.6530  -19.2180 C   0  0  0  0  0  0  0  0  0  0  0  0
   -3.9603   22.3050  -18.3836 H   0  0  0  0  0  0  0  0  0  0  0  0
   -3.7355   20.6138  -18.8910 H   0  0  0  0  0  0  0  0  0  0  0  0
   -4.6920   21.8610  -20.3500 C   0  0  0  0  0  0  0  0  0  0  0  0
   -5.6591   21.4677  -20.0369 H   0  0  0  0  0  0  0  0  0  0  0  0
   -4.7786   22.9312  -20.5380 H   0  0  0  0  0  0  0  0  0  0  0  0
   -7.1550   24.8450  -25.4880 C   0  0  0  0  0  0  0  0  0  0  0  0
   -6.5990   24.8000  -26.7610 C   0  0  0  0  0  0  0  0  0  0  0  0
   -7.1700   24.3951  -27.5834 H   0  0  0  0  0  0  0  0  0  0  0  0
   -5.3030   25.2770  -26.9810 C   0  0  0  0  0  0  0  0  0  0  0  0
   -4.8926   25.2451  -27.9795 H   0  0  0  0  0  0  0  0  0  0  0  0
   -4.5240   25.7950  -25.9390 C   0  0  0  0  0  0  0  0  0  0  0  0
   -5.0730   25.8340  -24.6580 C   0  0  0  0  0  0  0  0  0  0  0  0
   -4.4919   26.2187  -23.8329 H   0  0  0  0  0  0  0  0  0  0  0  0
   -6.3790   25.3740  -24.4410 C   0  0  0  0  0  0  0  0  0  0  0  0
   -6.7990   25.4269  -23.4474 H   0  0  0  0  0  0  0  0  0  0  0  0
   -3.1200   26.2840  -26.2250 C   0  0  0  0  0  0  0  0  0  0  0  0
   -2.9150   27.0560  -27.1580 O   0  0  0  0  0  0  0  0  0  0  0  0
   -2.1020   25.8540  -25.4660 N   0  0  0  0  0  0  0  0  0  0  0  0
   -1.1609   26.1649  -25.6602 H   0  0  0  0  0  0  0  0  0  0  0  0
   -2.2762   25.2192  -24.7000 H   0  0  0  0  0  0  0  0  0  0  0  0
  1  2  1  0  0  0  0
  1  8  2  0  0  0  0
  2  3  1  0  0  0  0
  2  5  2  0  0  0  0
  3  4  1  0  0  0  0
  3 35  1  0  0  0  0
  5  6  1  0  0  0  0
  6  7  2  0  0  0  0
  6 13  1  0  0  0  0
  7  8  1  0  0  0  0
  7 10  1  0  0  0  0
  8  9  1  0  0  0  0
  9 15  1  0  0  0  0
 10 11  2  0  0  0  0
 11 12  1  0  0  0  0
 11 13  1  0  0  0  0
 13 14  1  0  0  0  0
 15 16  1  0  0  0  0
 15 17  1  0  0  0  0
 15 18  1  0  0  0  0
 18 19  1  0  0  0  0
 18 20  1  0  0  0  0
 18 32  1  0  0  0  0
 20 21  1  0  0  0  0
 20 22  1  0  0  0  0
 20 23  1  0  0  0  0
 23 24  1  0  0  0  0
 23 25  1  0  0  0  0
 23 26  1  0  0  0  0
 26 27  1  0  0  0  0
 26 28  1  0  0  0  0
 26 29  1  0  0  0  0
 29 30  1  0  0  0  0
 29 31  1  0  0  0  0
 29 32  1  0  0  0  0
 32 33  1  0  0  0  0
 32 34  1  0  0  0  0
 35 36  1  0  0  0  0
 35 43  2  0  0  0  0
 36 37  1  0  0  0  0
 36 38  2  0  0  0  0
 38 39  1  0  0  0  0
 38 40  1  0  0  0  0
 40 41  2  0  0  0  0
 40 45  1  0  0  0  0
 41 42  1  0  0  0  0
 41 43  1  0  0  0  0
 43 44  1  0  0  0  0
 45 46  2  0  0  0  0
 45 47  1  0  0  0  0
 47 48  1  0  0  0  0
 47 49  1  0  0  0  0
M  END
$$$$
cdk2_hardcastle_36
  MOE2024           3D

 52 55  0  0  0  0  0  0  0  0999 V2000
   -7.5390   22.7200  -23.9160 N   0  0  0  0  0  0  0  0  0  0  0  0
   -8.6260   23.3150  -24.4550 C   0  0  0  0  0  0  0  0  0  0  0  0
   -8.5154   24.3735  -25.3248 N   0  0  0  0  0  0  0  0  0  0  0  0
   -9.3771   24.5732  -25.8409 H   0  0  0  0  0  0  0  0  0  0  0  0
   -9.8770   22.8680  -24.1600 N   0  0  0  0  0  0  0  0  0  0  0  0
  -10.0420   21.8210  -23.3210 C   0  0  0  0  0  0  0  0  0  0  0  0
   -8.9440   21.1630  -22.7090 C   0  0  0  0  0  0  0  0  0  0  0  0
   -7.6210   21.6980  -23.0610 C   0  0  0  0  0  0  0  0  0  0  0  0
   -6.5050   21.1430  -22.5290 O   0  0  0  0  0  0  0  0  0  0  0  0
   -9.4180   20.1500  -21.8860 N   0  0  0  0  0  0  0  0  0  0  0  0
  -10.7750   20.2390  -22.0430 C   0  0  0  0  0  0  0  0  0  0  0  0
  -11.4594   19.5781  -21.5319 H   0  0  0  0  0  0  0  0  0  0  0  0
  -11.2090   21.2310  -22.8990 N   0  0  0  0  0  0  0  0  0  0  0  0
  -12.1574   21.4668  -23.1541 H   0  0  0  0  0  0  0  0  0  0  0  0
   -5.2040   21.6960  -22.7620 C   0  0  0  0  0  0  0  0  0  0  0  0
   -5.2486   22.7846  -22.7309 H   0  0  0  0  0  0  0  0  0  0  0  0
   -4.8292   21.3754  -23.7340 H   0  0  0  0  0  0  0  0  0  0  0  0
   -4.2940   21.1760  -21.6510 C   0  0  0  0  0  0  0  0  0  0  0  0
   -4.4098   20.1012  -21.5110 H   0  0  0  0  0  0  0  0  0  0  0  0
   -2.8370   21.3960  -22.0290 C   0  0  0  0  0  0  0  0  0  0  0  0
   -2.6858   22.4409  -22.3001 H   0  0  0  0  0  0  0  0  0  0  0  0
   -2.5816   20.7601  -22.8767 H   0  0  0  0  0  0  0  0  0  0  0  0
   -1.9540   21.0480  -20.8550 C   0  0  0  0  0  0  0  0  0  0  0  0
   -0.9067   21.1716  -21.1308 H   0  0  0  0  0  0  0  0  0  0  0  0
   -2.1307   20.0158  -20.5528 H   0  0  0  0  0  0  0  0  0  0  0  0
   -2.3000   21.9870  -19.7100 C   0  0  0  0  0  0  0  0  0  0  0  0
   -2.2689   23.0192  -20.0588 H   0  0  0  0  0  0  0  0  0  0  0  0
   -1.5845   21.8561  -18.8982 H   0  0  0  0  0  0  0  0  0  0  0  0
   -3.7020   21.6530  -19.2180 C   0  0  0  0  0  0  0  0  0  0  0  0
   -3.9603   22.3050  -18.3836 H   0  0  0  0  0  0  0  0  0  0  0  0
   -3.7355   20.6138  -18.8910 H   0  0  0  0  0  0  0  0  0  0  0  0
   -4.6920   21.8610  -20.3500 C   0  0  0  0  0  0  0  0  0  0  0  0
   -5.6591   21.4677  -20.0369 H   0  0  0  0  0  0  0  0  0  0  0  0
   -4.7786   22.9312  -20.5380 H   0  0  0  0  0  0  0  0  0  0  0  0
   -7.3447   25.0786  -25.6434 C   0  0  0  0  0  0  0  0  0  0  0  0
   -7.1612   25.4906  -26.9647 C   0  0  0  0  0  0  0  0  0  0  0  0
   -7.8919   25.2667  -27.6979 H   0  0  0  0  0  0  0  0  0  0  0  0
   -6.0103   26.1873  -27.3111 C   0  0  0  0  0  0  0  0  0  0  0  0
   -5.8639   26.5041  -28.3128 H   0  0  0  0  0  0  0  0  0  0  0  0
   -5.0279   26.4805  -26.3510 C   0  0  0  0  0  0  0  0  0  0  0  0
   -5.2481   26.0875  -25.0194 C   0  0  0  0  0  0  0  0  0  0  0  0
   -4.5351   26.3355  -24.2763 H   0  0  0  0  0  0  0  0  0  0  0  0
   -6.3951   25.3903  -24.6647 C   0  0  0  0  0  0  0  0  0  0  0  0
   -6.5560   25.1046  -23.6575 H   0  0  0  0  0  0  0  0  0  0  0  0
   -3.8152   27.1993  -26.7465 C   0  0  0  0  0  0  0  0  0  0  0  0
   -3.8190   28.1593  -27.5011 O   0  0  0  0  0  0  0  0  0  0  0  0
   -2.5701   26.8381  -26.3210 N   0  0  0  0  0  0  0  0  0  0  0  0
   -1.8160   27.4570  -26.6542 H   0  0  0  0  0  0  0  0  0  0  0  0
   -2.2093   25.5693  -25.6796 C   0  0  0  0  0  0  0  0  0  0  0  0
   -1.2166   25.2804  -26.0292 H   0  0  0  0  0  0  0  0  0  0  0  0
   -2.9334   24.7997  -25.9554 H   0  0  0  0  0  0  0  0  0  0  0  0
   -2.1962   25.7166  -24.5983 H   0  0  0  0  0  0  0  0  0  0  0  0
  1  2  1  0  0  0  0
  1  8  2  0  0  0  0
  2  3  1  0  0  0  0
  2  5  2  0  0  0  0
  3  4  1  0  0  0  0
  3 35  1  0  0  0  0
  5  6  1  0  0  0  0
  6  7  2  0  0  0  0
  6 13  1  0  0  0  0
  7  8  1  0  0  0  0
  7 10  1  0  0  0  0
  8  9  1  0  0  0  0
  9 15  1  0  0  0  0
 10 11  2  0  0  0  0
 11 12  1  0  0  0  0
 11 13  1  0  0  0  0
 13 14  1  0  0  0  0
 15 16  1  0  0  0  0
 15 17  1  0  0  0  0
 15 18  1  0  0  0  0
 18 19  1  0  0  0  0
 18 20  1  0  0  0  0
 18 32  1  0  0  0  0
 20 21  1  0  0  0  0
 20 22  1  0  0  0  0
 20 23  1  0  0  0  0
 23 24  1  0  0  0  0
 23 25  1  0  0  0  0
 23 26  1  0  0  0  0
 26 27  1  0  0  0  0
 26 28  1  0  0  0  0
 26 29  1  0  0  0  0
 29 30  1  0  0  0  0
 29 31  1  0  0  0  0
 29 32  1  0  0  0  0
 32 33  1  0  0  0  0
 32 34  1  0  0  0  0
 35 36  1  0  0  0  0
 35 43  2  0  0  0  0
 36 37  1  0  0  0  0
 36 38  2  0  0  0  0
 38 39  1  0  0  0  0
 38 40  1  0  0  0  0
 40 41  2  0  0  0  0
 40 45  1  0  0  0  0
 41 42  1  0  0  0  0
 41 43  1  0  0  0  0
 43 44  1  0  0  0  0
 45 46  2  0  0  0  0
 45 47  1  0  0  0  0
 47 48  1  0  0  0  0
 47 49  1  0  0  0  0
 49 50  1  0  0  0  0
 49 51  1  0  0  0  0
 49 52  1  0  0  0  0
M  END
$$$$
cdk2_hardcastle_37
  MOE2024           3D

 55 58  0  0  0  0  0  0  0  0999 V2000
   -7.5390   22.7200  -23.9160 N   0  0  0  0  0  0  0  0  0  0  0  0
   -8.6260   23.3150  -24.4550 C   0  0  0  0  0  0  0  0  0  0  0  0
   -8.5205   24.3751  -25.3236 N   0  0  0  0  0  0  0  0  0  0  0  0
   -9.3876   24.5765  -25.8297 H   0  0  0  0  0  0  0  0  0  0  0  0
   -9.8770   22.8680  -24.1600 N   0  0  0  0  0  0  0  0  0  0  0  0
  -10.0420   21.8210  -23.3210 C   0  0  0  0  0  0  0  0  0  0  0  0
   -8.9440   21.1630  -22.7090 C   0  0  0  0  0  0  0  0  0  0  0  0
   -7.6210   21.6980  -23.0610 C   0  0  0  0  0  0  0  0  0  0  0  0
   -6.5050   21.1430  -22.5290 O   0  0  0  0  0  0  0  0  0  0  0  0
   -9.4180   20.1500  -21.8860 N   0  0  0  0  0  0  0  0  0  0  0  0
  -10.7750   20.2390  -22.0430 C   0  0  0  0  0  0  0  0  0  0  0  0
  -11.4594   19.5781  -21.5319 H   0  0  0  0  0  0  0  0  0  0  0  0
  -11.2090   21.2310  -22.8990 N   0  0  0  0  0  0  0  0  0  0  0  0
  -12.1574   21.4668  -23.1541 H   0  0  0  0  0  0  0  0  0  0  0  0
   -5.2040   21.6960  -22.7620 C   0  0  0  0  0  0  0  0  0  0  0  0
   -5.2486   22.7846  -22.7309 H   0  0  0  0  0  0  0  0  0  0  0  0
   -4.8292   21.3754  -23.7340 H   0  0  0  0  0  0  0  0  0  0  0  0
   -4.2940   21.1760  -21.6510 C   0  0  0  0  0  0  0  0  0  0  0  0
   -4.4098   20.1012  -21.5110 H   0  0  0  0  0  0  0  0  0  0  0  0
   -2.8370   21.3960  -22.0290 C   0  0  0  0  0  0  0  0  0  0  0  0
   -2.6858   22.4409  -22.3001 H   0  0  0  0  0  0  0  0  0  0  0  0
   -2.5816   20.7601  -22.8767 H   0  0  0  0  0  0  0  0  0  0  0  0
   -1.9540   21.0480  -20.8550 C   0  0  0  0  0  0  0  0  0  0  0  0
   -0.9067   21.1716  -21.1308 H   0  0  0  0  0  0  0  0  0  0  0  0
   -2.1307   20.0158  -20.5528 H   0  0  0  0  0  0  0  0  0  0  0  0
   -2.3000   21.9870  -19.7100 C   0  0  0  0  0  0  0  0  0  0  0  0
   -2.2689   23.0192  -20.0588 H   0  0  0  0  0  0  0  0  0  0  0  0
   -1.5845   21.8561  -18.8982 H   0  0  0  0  0  0  0  0  0  0  0  0
   -3.7020   21.6530  -19.2180 C   0  0  0  0  0  0  0  0  0  0  0  0
   -3.9603   22.3050  -18.3836 H   0  0  0  0  0  0  0  0  0  0  0  0
   -3.7355   20.6138  -18.8910 H   0  0  0  0  0  0  0  0  0  0  0  0
   -4.6920   21.8610  -20.3500 C   0  0  0  0  0  0  0  0  0  0  0  0
   -5.6591   21.4677  -20.0369 H   0  0  0  0  0  0  0  0  0  0  0  0
   -4.7786   22.9312  -20.5380 H   0  0  0  0  0  0  0  0  0  0  0  0
   -7.3608   25.0984  -25.6412 C   0  0  0  0  0  0  0  0  0  0  0  0
   -7.2082   25.5512  -26.9533 C   0  0  0  0  0  0  0  0  0  0  0  0
   -7.9522   25.3433  -27.6777 H   0  0  0  0  0  0  0  0  0  0  0  0
   -6.0707   26.2681  -27.3026 C   0  0  0  0  0  0  0  0  0  0  0  0
   -5.9476   26.6170  -28.2967 H   0  0  0  0  0  0  0  0  0  0  0  0
   -5.0714   26.5403  -26.3544 C   0  0  0  0  0  0  0  0  0  0  0  0
   -5.2595   26.1057  -25.0312 C   0  0  0  0  0  0  0  0  0  0  0  0
   -4.5298   26.3364  -24.2983 H   0  0  0  0  0  0  0  0  0  0  0  0
   -6.3937   25.3896  -24.6732 C   0  0  0  0  0  0  0  0  0  0  0  0
   -6.5308   25.0750  -23.6713 H   0  0  0  0  0  0  0  0  0  0  0  0
   -3.8711   27.2794  -26.7487 C   0  0  0  0  0  0  0  0  0  0  0  0
   -3.9344   28.3079  -27.4170 O   0  0  0  0  0  0  0  0  0  0  0  0
   -2.6011   26.8294  -26.3934 N   0  0  0  0  0  0  0  0  0  0  0  0
   -1.4220   27.6724  -26.6644 C   0  0  0  0  0  0  0  0  0  0  0  0
   -0.6146   27.3480  -26.0219 H   0  0  0  0  0  0  0  0  0  0  0  0
   -1.6857   28.6999  -26.4478 H   0  0  0  0  0  0  0  0  0  0  0  0
   -1.1714   27.5523  -27.7102 H   0  0  0  0  0  0  0  0  0  0  0  0
   -2.3422   25.4388  -25.9778 C   0  0  0  0  0  0  0  0  0  0  0  0
   -1.3980   25.1314  -26.4083 H   0  0  0  0  0  0  0  0  0  0  0  0
   -3.1372   24.8055  -26.3493 H   0  0  0  0  0  0  0  0  0  0  0  0
   -2.2964   25.4238  -24.8970 H   0  0  0  0  0  0  0  0  0  0  0  0
  1  2  1  0  0  0  0
  1  8  2  0  0  0  0
  2  3  1  0  0  0  0
  2  5  2  0  0  0  0
  3  4  1  0  0  0  0
  3 35  1  0  0  0  0
  5  6  1  0  0  0  0
  6  7  2  0  0  0  0
  6 13  1  0  0  0  0
  7  8  1  0  0  0  0
  7 10  1  0  0  0  0
  8  9  1  0  0  0  0
  9 15  1  0  0  0  0
 10 11  2  0  0  0  0
 11 12  1  0  0  0  0
 11 13  1  0  0  0  0
 13 14  1  0  0  0  0
 15 16  1  0  0  0  0
 15 17  1  0  0  0  0
 15 18  1  0  0  0  0
 18 19  1  0  0  0  0
 18 20  1  0  0  0  0
 18 32  1  0  0  0  0
 20 21  1  0  0  0  0
 20 22  1  0  0  0  0
 20 23  1  0  0  0  0
 23 24  1  0  0  0  0
 23 25  1  0  0  0  0
 23 26  1  0  0  0  0
 26 27  1  0  0  0  0
 26 28  1  0  0  0  0
 26 29  1  0  0  0  0
 29 30  1  0  0  0  0
 29 31  1  0  0  0  0
 29 32  1  0  0  0  0
 32 33  1  0  0  0  0
 32 34  1  0  0  0  0
 35 36  1  0  0  0  0
 35 43  2  0  0  0  0
 36 37  1  0  0  0  0
 36 38  2  0  0  0  0
 38 39  1  0  0  0  0
 38 40  1  0  0  0  0
 40 41  2  0  0  0  0
 40 45  1  0  0  0  0
 41 42  1  0  0  0  0
 41 43  1  0  0  0  0
 43 44  1  0  0  0  0
 45 46  2  0  0  0  0
 45 47  1  0  0  0  0
 47 48  1  0  0  0  0
 47 52  1  0  0  0  0
 48 49  1  0  0  0  0
 48 50  1  0  0  0  0
 48 51  1  0  0  0  0
 52 53  1  0  0  0  0
 52 54  1  0  0  0  0
 52 55  1  0  0  0  0
M  END
$$$$
cdk2_hardcastle_38
  MOE2024           3D

 50 53  0  0  0  0  0  0  0  0999 V2000
   -7.5390   22.7200  -23.9160 N   0  0  0  0  0  0  0  0  0  0  0  0
   -8.6260   23.3150  -24.4550 C   0  0  0  0  0  0  0  0  0  0  0  0
   -8.5255   24.3755  -25.3241 N   0  0  0  0  0  0  0  0  0  0  0  0
   -9.3944   24.5654  -25.8317 H   0  0  0  0  0  0  0  0  0  0  0  0
   -9.8770   22.8680  -24.1600 N   0  0  0  0  0  0  0  0  0  0  0  0
  -10.0420   21.8210  -23.3210 C   0  0  0  0  0  0  0  0  0  0  0  0
   -8.9440   21.1630  -22.7090 C   0  0  0  0  0  0  0  0  0  0  0  0
   -7.6210   21.6980  -23.0610 C   0  0  0  0  0  0  0  0  0  0  0  0
   -6.5050   21.1430  -22.5290 O   0  0  0  0  0  0  0  0  0  0  0  0
   -9.4180   20.1500  -21.8860 N   0  0  0  0  0  0  0  0  0  0  0  0
  -10.7750   20.2390  -22.0430 C   0  0  0  0  0  0  0  0  0  0  0  0
  -11.4594   19.5781  -21.5319 H   0  0  0  0  0  0  0  0  0  0  0  0
  -11.2090   21.2310  -22.8990 N   0  0  0  0  0  0  0  0  0  0  0  0
  -12.1574   21.4668  -23.1541 H   0  0  0  0  0  0  0  0  0  0  0  0
   -5.2040   21.6960  -22.7620 C   0  0  0  0  0  0  0  0  0  0  0  0
   -5.2486   22.7846  -22.7309 H   0  0  0  0  0  0  0  0  0  0  0  0
   -4.8292   21.3754  -23.7340 H   0  0  0  0  0  0  0  0  0  0  0  0
   -4.2940   21.1760  -21.6510 C   0  0  0  0  0  0  0  0  0  0  0  0
   -4.4098   20.1012  -21.5110 H   0  0  0  0  0  0  0  0  0  0  0  0
   -2.8370   21.3960  -22.0290 C   0  0  0  0  0  0  0  0  0  0  0  0
   -2.6858   22.4409  -22.3001 H   0  0  0  0  0  0  0  0  0  0  0  0
   -2.5816   20.7601  -22.8767 H   0  0  0  0  0  0  0  0  0  0  0  0
   -1.9540   21.0480  -20.8550 C   0  0  0  0  0  0  0  0  0  0  0  0
   -0.9067   21.1716  -21.1308 H   0  0  0  0  0  0  0  0  0  0  0  0
   -2.1307   20.0158  -20.5528 H   0  0  0  0  0  0  0  0  0  0  0  0
   -2.3000   21.9870  -19.7100 C   0  0  0  0  0  0  0  0  0  0  0  0
   -2.2689   23.0192  -20.0588 H   0  0  0  0  0  0  0  0  0  0  0  0
   -1.5845   21.8561  -18.8982 H   0  0  0  0  0  0  0  0  0  0  0  0
   -3.7020   21.6530  -19.2180 C   0  0  0  0  0  0  0  0  0  0  0  0
   -3.9603   22.3050  -18.3836 H   0  0  0  0  0  0  0  0  0  0  0  0
   -3.7355   20.6138  -18.8910 H   0  0  0  0  0  0  0  0  0  0  0  0
   -4.6920   21.8610  -20.3500 C   0  0  0  0  0  0  0  0  0  0  0  0
   -5.6591   21.4677  -20.0369 H   0  0  0  0  0  0  0  0  0  0  0  0
   -4.7786   22.9312  -20.5380 H   0  0  0  0  0  0  0  0  0  0  0  0
   -7.3787   25.1166  -25.6431 C   0  0  0  0  0  0  0  0  0  0  0  0
   -7.2595   25.6058  -26.9448 C   0  0  0  0  0  0  0  0  0  0  0  0
   -8.0124   25.4003  -27.6608 H   0  0  0  0  0  0  0  0  0  0  0  0
   -6.1445   26.3538  -27.2972 C   0  0  0  0  0  0  0  0  0  0  0  0
   -6.0529   26.7204  -28.2888 H   0  0  0  0  0  0  0  0  0  0  0  0
   -5.1301   26.6342  -26.3619 C   0  0  0  0  0  0  0  0  0  0  0  0
   -5.2778   26.1391  -25.0506 C   0  0  0  0  0  0  0  0  0  0  0  0
   -4.5382   26.3352  -24.3190 H   0  0  0  0  0  0  0  0  0  0  0  0
   -6.3914   25.3921  -24.6913 C   0  0  0  0  0  0  0  0  0  0  0  0
   -6.4969   25.0397  -23.6982 H   0  0  0  0  0  0  0  0  0  0  0  0
   -3.9653   27.4222  -26.7592 C   0  0  0  0  0  0  0  0  0  0  0  0
   -2.8504   27.7577  -25.7937 C   0  0  0  0  0  0  0  0  0  0  0  0
   -3.2895   28.3204  -24.9831 H   0  0  0  0  0  0  0  0  0  0  0  0
   -2.1182   28.3468  -26.3291 H   0  0  0  0  0  0  0  0  0  0  0  0
   -2.4293   26.8223  -25.4557 H   0  0  0  0  0  0  0  0  0  0  0  0
   -3.8476   27.8427  -27.8896 O   0  0  0  0  0  0  0  0  0  0  0  0
  1  2  1  0  0  0  0
  1  8  2  0  0  0  0
  2  3  1  0  0  0  0
  2  5  2  0  0  0  0
  3  4  1  0  0  0  0
  3 35  1  0  0  0  0
  5  6  1  0  0  0  0
  6  7  2  0  0  0  0
  6 13  1  0  0  0  0
  7  8  1  0  0  0  0
  7 10  1  0  0  0  0
  8  9  1  0  0  0  0
  9 15  1  0  0  0  0
 10 11  2  0  0  0  0
 11 12  1  0  0  0  0
 11 13  1  0  0  0  0
 13 14  1  0  0  0  0
 15 16  1  0  0  0  0
 15 17  1  0  0  0  0
 15 18  1  0  0  0  0
 18 19  1  0  0  0  0
 18 20  1  0  0  0  0
 18 32  1  0  0  0  0
 20 21  1  0  0  0  0
 20 22  1  0  0  0  0
 20 23  1  0  0  0  0
 23 24  1  0  0  0  0
 23 25  1  0  0  0  0
 23 26  1  0  0  0  0
 26 27  1  0  0  0  0
 26 28  1  0  0  0  0
 26 29  1  0  0  0  0
 29 30  1  0  0  0  0
 29 31  1  0  0  0  0
 29 32  1  0  0  0  0
 32 33  1  0  0  0  0
 32 34  1  0  0  0  0
 35 36  1  0  0  0  0
 35 43  2  0  0  0  0
 36 37  1  0  0  0  0
 36 38  2  0  0  0  0
 38 39  1  0  0  0  0
 38 40  1  0  0  0  0
 40 41  2  0  0  0  0
 40 45  1  0  0  0  0
 41 42  1  0  0  0  0
 41 43  1  0  0  0  0
 43 44  1  0  0  0  0
 45 46  1  0  0  0  0
 45 50  2  0  0  0  0
 46 47  1  0  0  0  0
 46 48  1  0  0  0  0
 46 49  1  0  0  0  0
M  END
$$$$
cdk2_hardcastle_39
  MOE2024           3D

 47 50  0  0  0  0  0  0  0  0999 V2000
   -7.5390   22.7200  -23.9160 N   0  0  0  0  0  0  0  0  0  0  0  0
   -8.6260   23.3150  -24.4550 C   0  0  0  0  0  0  0  0  0  0  0  0
   -8.5195   24.3741  -25.3225 N   0  0  0  0  0  0  0  0  0  0  0  0
   -9.3802   24.5784  -25.8353 H   0  0  0  0  0  0  0  0  0  0  0  0
   -9.8770   22.8680  -24.1600 N   0  0  0  0  0  0  0  0  0  0  0  0
  -10.0420   21.8210  -23.3210 C   0  0  0  0  0  0  0  0  0  0  0  0
   -8.9440   21.1630  -22.7090 C   0  0  0  0  0  0  0  0  0  0  0  0
   -7.6210   21.6980  -23.0610 C   0  0  0  0  0  0  0  0  0  0  0  0
   -6.5050   21.1430  -22.5290 O   0  0  0  0  0  0  0  0  0  0  0  0
   -9.4180   20.1500  -21.8860 N   0  0  0  0  0  0  0  0  0  0  0  0
  -10.7750   20.2390  -22.0430 C   0  0  0  0  0  0  0  0  0  0  0  0
  -11.4594   19.5781  -21.5319 H   0  0  0  0  0  0  0  0  0  0  0  0
  -11.2090   21.2310  -22.8990 N   0  0  0  0  0  0  0  0  0  0  0  0
  -12.1574   21.4668  -23.1541 H   0  0  0  0  0  0  0  0  0  0  0  0
   -5.2040   21.6960  -22.7620 C   0  0  0  0  0  0  0  0  0  0  0  0
   -5.2486   22.7846  -22.7309 H   0  0  0  0  0  0  0  0  0  0  0  0
   -4.8292   21.3754  -23.7340 H   0  0  0  0  0  0  0  0  0  0  0  0
   -4.2940   21.1760  -21.6510 C   0  0  0  0  0  0  0  0  0  0  0  0
   -4.4098   20.1012  -21.5110 H   0  0  0  0  0  0  0  0  0  0  0  0
   -2.8370   21.3960  -22.0290 C   0  0  0  0  0  0  0  0  0  0  0  0
   -2.6858   22.4409  -22.3001 H   0  0  0  0  0  0  0  0  0  0  0  0
   -2.5816   20.7601  -22.8767 H   0  0  0  0  0  0  0  0  0  0  0  0
   -1.9540   21.0480  -20.8550 C   0  0  0  0  0  0  0  0  0  0  0  0
   -0.9067   21.1716  -21.1308 H   0  0  0  0  0  0  0  0  0  0  0  0
   -2.1307   20.0158  -20.5528 H   0  0  0  0  0  0  0  0  0  0  0  0
   -2.3000   21.9870  -19.7100 C   0  0  0  0  0  0  0  0  0  0  0  0
   -2.2689   23.0192  -20.0588 H   0  0  0  0  0  0  0  0  0  0  0  0
   -1.5845   21.8561  -18.8982 H   0  0  0  0  0  0  0  0  0  0  0  0
   -3.7020   21.6530  -19.2180 C   0  0  0  0  0  0  0  0  0  0  0  0
   -3.9603   22.3050  -18.3836 H   0  0  0  0  0  0  0  0  0  0  0  0
   -3.7355   20.6138  -18.8910 H   0  0  0  0  0  0  0  0  0  0  0  0
   -4.6920   21.8610  -20.3500 C   0  0  0  0  0  0  0  0  0  0  0  0
   -5.6591   21.4677  -20.0369 H   0  0  0  0  0  0  0  0  0  0  0  0
   -4.7786   22.9312  -20.5380 H   0  0  0  0  0  0  0  0  0  0  0  0
   -7.3569   25.1015  -25.6408 C   0  0  0  0  0  0  0  0  0  0  0  0
   -7.2076   25.5558  -26.9515 C   0  0  0  0  0  0  0  0  0  0  0  0
   -7.9431   25.3362  -27.6790 H   0  0  0  0  0  0  0  0  0  0  0  0
   -6.0815   26.2913  -27.2998 C   0  0  0  0  0  0  0  0  0  0  0  0
   -5.9586   26.6352  -28.2964 H   0  0  0  0  0  0  0  0  0  0  0  0
   -5.0873   26.5924  -26.3512 C   0  0  0  0  0  0  0  0  0  0  0  0
   -5.2656   26.1320  -25.0342 C   0  0  0  0  0  0  0  0  0  0  0  0
   -4.5257   26.3571  -24.3076 H   0  0  0  0  0  0  0  0  0  0  0  0
   -6.3882   25.3964  -24.6769 C   0  0  0  0  0  0  0  0  0  0  0  0
   -6.5095   25.0702  -23.6782 H   0  0  0  0  0  0  0  0  0  0  0  0
   -3.8939   27.3685  -26.7259 C   0  0  0  0  0  0  0  0  0  0  0  0
   -3.0213   27.6400  -25.8526 O   0  5  0  0  0  0  0  0  0  0  0  0
   -3.7505   27.7580  -27.9194 O   0  0  0  0  0  0  0  0  0  0  0  0
  1  2  1  0  0  0  0
  1  8  2  0  0  0  0
  2  3  1  0  0  0  0
  2  5  2  0  0  0  0
  3  4  1  0  0  0  0
  3 35  1  0  0  0  0
  5  6  1  0  0  0  0
  6  7  2  0  0  0  0
  6 13  1  0  0  0  0
  7  8  1  0  0  0  0
  7 10  1  0  0  0  0
  8  9  1  0  0  0  0
  9 15  1  0  0  0  0
 10 11  2  0  0  0  0
 11 12  1  0  0  0  0
 11 13  1  0  0  0  0
 13 14  1  0  0  0  0
 15 16  1  0  0  0  0
 15 17  1  0  0  0  0
 15 18  1  0  0  0  0
 18 19  1  0  0  0  0
 18 20  1  0  0  0  0
 18 32  1  0  0  0  0
 20 21  1  0  0  0  0
 20 22  1  0  0  0  0
 20 23  1  0  0  0  0
 23 24  1  0  0  0  0
 23 25  1  0  0  0  0
 23 26  1  0  0  0  0
 26 27  1  0  0  0  0
 26 28  1  0  0  0  0
 26 29  1  0  0  0  0
 29 30  1  0  0  0  0
 29 31  1  0  0  0  0
 29 32  1  0  0  0  0
 32 33  1  0  0  0  0
 32 34  1  0  0  0  0
 35 36  1  0  0  0  0
 35 43  2  0  0  0  0
 36 37  1  0  0  0  0
 36 38  2  0  0  0  0
 38 39  1  0  0  0  0
 38 40  1  0  0  0  0
 40 41  2  0  0  0  0
 40 45  1  0  0  0  0
 41 42  1  0  0  0  0
 41 43  1  0  0  0  0
 43 44  1  0  0  0  0
 45 46  1  0  0  0  0
 45 47  2  0  0  0  0
M  CHG  1  46  -1
M  END
$$$$
cdk2_hardcastle_41
  MOE2024           3D

 52 55  0  0  0  0  0  0  0  0999 V2000
   -7.5390   22.7200  -23.9160 N   0  0  0  0  0  0  0  0  0  0  0  0
   -8.6260   23.3150  -24.4550 C   0  0  0  0  0  0  0  0  0  0  0  0
   -8.5335   24.3755  -25.3218 N   0  0  0  0  0  0  0  0  0  0  0  0
   -9.4136   24.5792  -25.8028 H   0  0  0  0  0  0  0  0  0  0  0  0
   -9.8770   22.8680  -24.1600 N   0  0  0  0  0  0  0  0  0  0  0  0
  -10.0420   21.8210  -23.3210 C   0  0  0  0  0  0  0  0  0  0  0  0
   -8.9440   21.1630  -22.7090 C   0  0  0  0  0  0  0  0  0  0  0  0
   -7.6210   21.6980  -23.0610 C   0  0  0  0  0  0  0  0  0  0  0  0
   -6.5050   21.1430  -22.5290 O   0  0  0  0  0  0  0  0  0  0  0  0
   -9.4180   20.1500  -21.8860 N   0  0  0  0  0  0  0  0  0  0  0  0
  -10.7750   20.2390  -22.0430 C   0  0  0  0  0  0  0  0  0  0  0  0
  -11.4594   19.5781  -21.5319 H   0  0  0  0  0  0  0  0  0  0  0  0
  -11.2090   21.2310  -22.8990 N   0  0  0  0  0  0  0  0  0  0  0  0
  -12.1574   21.4668  -23.1541 H   0  0  0  0  0  0  0  0  0  0  0  0
   -5.2040   21.6960  -22.7620 C   0  0  0  0  0  0  0  0  0  0  0  0
   -5.2486   22.7846  -22.7309 H   0  0  0  0  0  0  0  0  0  0  0  0
   -4.8292   21.3754  -23.7340 H   0  0  0  0  0  0  0  0  0  0  0  0
   -4.2940   21.1760  -21.6510 C   0  0  0  0  0  0  0  0  0  0  0  0
   -4.4098   20.1012  -21.5110 H   0  0  0  0  0  0  0  0  0  0  0  0
   -2.8370   21.3960  -22.0290 C   0  0  0  0  0  0  0  0  0  0  0  0
   -2.6858   22.4409  -22.3001 H   0  0  0  0  0  0  0  0  0  0  0  0
   -2.5816   20.7601  -22.8767 H   0  0  0  0  0  0  0  0  0  0  0  0
   -1.9540   21.0480  -20.8550 C   0  0  0  0  0  0  0  0  0  0  0  0
   -0.9067   21.1716  -21.1308 H   0  0  0  0  0  0  0  0  0  0  0  0
   -2.1307   20.0158  -20.5528 H   0  0  0  0  0  0  0  0  0  0  0  0
   -2.3000   21.9870  -19.7100 C   0  0  0  0  0  0  0  0  0  0  0  0
   -2.2689   23.0192  -20.0588 H   0  0  0  0  0  0  0  0  0  0  0  0
   -1.5845   21.8561  -18.8982 H   0  0  0  0  0  0  0  0  0  0  0  0
   -3.7020   21.6530  -19.2180 C   0  0  0  0  0  0  0  0  0  0  0  0
   -3.9603   22.3050  -18.3836 H   0  0  0  0  0  0  0  0  0  0  0  0
   -3.7355   20.6138  -18.8910 H   0  0  0  0  0  0  0  0  0  0  0  0
   -4.6920   21.8610  -20.3500 C   0  0  0  0  0  0  0  0  0  0  0  0
   -5.6591   21.4677  -20.0369 H   0  0  0  0  0  0  0  0  0  0  0  0
   -4.7786   22.9312  -20.5380 H   0  0  0  0  0  0  0  0  0  0  0  0
   -7.3877   25.1198  -25.6666 C   0  0  0  0  0  0  0  0  0  0  0  0
   -7.3120   25.6322  -26.9612 C   0  0  0  0  0  0  0  0  0  0  0  0
   -8.0874   25.4405  -27.6560 H   0  0  0  0  0  0  0  0  0  0  0  0
   -6.2095   26.3923  -27.3356 C   0  0  0  0  0  0  0  0  0  0  0  0
   -6.1531   26.7841  -28.3202 H   0  0  0  0  0  0  0  0  0  0  0  0
   -5.1816   26.6460  -26.4253 C   0  0  0  0  0  0  0  0  0  0  0  0
   -3.9873   27.4901  -26.8426 C   0  0  0  0  0  0  0  0  0  0  0  0
   -3.6242   27.1512  -27.8024 H   0  0  0  0  0  0  0  0  0  0  0  0
   -3.2305   27.4621  -26.0727 H   0  0  0  0  0  0  0  0  0  0  0  0
   -5.2686   26.1312  -25.1297 C   0  0  0  0  0  0  0  0  0  0  0  0
   -4.4954   26.3150  -24.4285 H   0  0  0  0  0  0  0  0  0  0  0  0
   -6.3696   25.3749  -24.7448 C   0  0  0  0  0  0  0  0  0  0  0  0
   -6.4372   25.0024  -23.7564 H   0  0  0  0  0  0  0  0  0  0  0  0
   -4.4732   28.9186  -26.9842 C   0  0  0  0  0  0  0  0  0  0  0  0
   -5.0191   29.5169  -25.9391 N   0  0  0  0  0  0  0  0  0  0  0  0
   -5.3509   30.4555  -26.0792 H   0  0  0  0  0  0  0  0  0  0  0  0
   -5.2025   28.9970  -25.0988 H   0  0  0  0  0  0  0  0  0  0  0  0
   -4.3805   29.5484  -28.0251 O   0  0  0  0  0  0  0  0  0  0  0  0
  1  2  1  0  0  0  0
  1  8  2  0  0  0  0
  2  3  1  0  0  0  0
  2  5  2  0  0  0  0
  3  4  1  0  0  0  0
  3 35  1  0  0  0  0
  5  6  1  0  0  0  0
  6  7  2  0  0  0  0
  6 13  1  0  0  0  0
  7  8  1  0  0  0  0
  7 10  1  0  0  0  0
  8  9  1  0  0  0  0
  9 15  1  0  0  0  0
 10 11  2  0  0  0  0
 11 12  1  0  0  0  0
 11 13  1  0  0  0  0
 13 14  1  0  0  0  0
 15 16  1  0  0  0  0
 15 17  1  0  0  0  0
 15 18  1  0  0  0  0
 18 19  1  0  0  0  0
 18 20  1  0  0  0  0
 18 32  1  0  0  0  0
 20 21  1  0  0  0  0
 20 22  1  0  0  0  0
 20 23  1  0  0  0  0
 23 24  1  0  0  0  0
 23 25  1  0  0  0  0
 23 26  1  0  0  0  0
 26 27  1  0  0  0  0
 26 28  1  0  0  0  0
 26 29  1  0  0  0  0
 29 30  1  0  0  0  0
 29 31  1  0  0  0  0
 29 32  1  0  0  0  0
 32 33  1  0  0  0  0
 32 34  1  0  0  0  0
 35 36  1  0  0  0  0
 35 46  2  0  0  0  0
 36 37  1  0  0  0  0
 36 38  2  0  0  0  0
 38 39  1  0  0  0  0
 38 40  1  0  0  0  0
 40 41  1  0  0  0  0
 40 44  2  0  0  0  0
 41 42  1  0  0  0  0
 41 43  1  0  0  0  0
 41 48  1  0  0  0  0
 44 45  1  0  0  0  0
 44 46  1  0  0  0  0
 46 47  1  0  0  0  0
 48 49  1  0  0  0  0
 48 52  2  0  0  0  0
 49 50  1  0  0  0  0
 49 51  1  0  0  0  0
M  END
$$$$
cdk2_hardcastle_42
  MOE2024           3D

 49 52  0  0  0  0  0  0  0  0999 V2000
   -7.5390   22.7200  -23.9160 N   0  0  0  0  0  0  0  0  0  0  0  0
   -8.6260   23.3150  -24.4550 C   0  0  0  0  0  0  0  0  0  0  0  0
   -8.5340   24.3703  -25.3277 N   0  0  0  0  0  0  0  0  0  0  0  0
   -9.4176   24.5810  -25.7992 H   0  0  0  0  0  0  0  0  0  0  0  0
   -9.8770   22.8680  -24.1600 N   0  0  0  0  0  0  0  0  0  0  0  0
  -10.0420   21.8210  -23.3210 C   0  0  0  0  0  0  0  0  0  0  0  0
   -8.9440   21.1630  -22.7090 C   0  0  0  0  0  0  0  0  0  0  0  0
   -7.6210   21.6980  -23.0610 C   0  0  0  0  0  0  0  0  0  0  0  0
   -6.5050   21.1430  -22.5290 O   0  0  0  0  0  0  0  0  0  0  0  0
   -9.4180   20.1500  -21.8860 N   0  0  0  0  0  0  0  0  0  0  0  0
  -10.7750   20.2390  -22.0430 C   0  0  0  0  0  0  0  0  0  0  0  0
  -11.4594   19.5781  -21.5319 H   0  0  0  0  0  0  0  0  0  0  0  0
  -11.2090   21.2310  -22.8990 N   0  0  0  0  0  0  0  0  0  0  0  0
  -12.1574   21.4668  -23.1541 H   0  0  0  0  0  0  0  0  0  0  0  0
   -5.2040   21.6960  -22.7620 C   0  0  0  0  0  0  0  0  0  0  0  0
   -5.2486   22.7846  -22.7309 H   0  0  0  0  0  0  0  0  0  0  0  0
   -4.8292   21.3754  -23.7340 H   0  0  0  0  0  0  0  0  0  0  0  0
   -4.2940   21.1760  -21.6510 C   0  0  0  0  0  0  0  0  0  0  0  0
   -4.4098   20.1012  -21.5110 H   0  0  0  0  0  0  0  0  0  0  0  0
   -2.8370   21.3960  -22.0290 C   0  0  0  0  0  0  0  0  0  0  0  0
   -2.6858   22.4409  -22.3001 H   0  0  0  0  0  0  0  0  0  0  0  0
   -2.5816   20.7601  -22.8767 H   0  0  0  0  0  0  0  0  0  0  0  0
   -1.9540   21.0480  -20.8550 C   0  0  0  0  0  0  0  0  0  0  0  0
   -0.9067   21.1716  -21.1308 H   0  0  0  0  0  0  0  0  0  0  0  0
   -2.1307   20.0158  -20.5528 H   0  0  0  0  0  0  0  0  0  0  0  0
   -2.3000   21.9870  -19.7100 C   0  0  0  0  0  0  0  0  0  0  0  0
   -2.2689   23.0192  -20.0588 H   0  0  0  0  0  0  0  0  0  0  0  0
   -1.5845   21.8561  -18.8982 H   0  0  0  0  0  0  0  0  0  0  0  0
   -3.7020   21.6530  -19.2180 C   0  0  0  0  0  0  0  0  0  0  0  0
   -3.9603   22.3050  -18.3836 H   0  0  0  0  0  0  0  0  0  0  0  0
   -3.7355   20.6138  -18.8910 H   0  0  0  0  0  0  0  0  0  0  0  0
   -4.6920   21.8610  -20.3500 C   0  0  0  0  0  0  0  0  0  0  0  0
   -5.6591   21.4677  -20.0369 H   0  0  0  0  0  0  0  0  0  0  0  0
   -4.7786   22.9312  -20.5380 H   0  0  0  0  0  0  0  0  0  0  0  0
   -7.3821   25.0920  -25.6954 C   0  0  0  0  0  0  0  0  0  0  0  0
   -7.2987   25.5605  -27.0059 C   0  0  0  0  0  0  0  0  0  0  0  0
   -8.0759   25.3533  -27.6944 H   0  0  0  0  0  0  0  0  0  0  0  0
   -6.1879   26.2967  -27.4032 C   0  0  0  0  0  0  0  0  0  0  0  0
   -6.1304   26.6521  -28.4007 H   0  0  0  0  0  0  0  0  0  0  0  0
   -5.1577   26.5701  -26.4989 C   0  0  0  0  0  0  0  0  0  0  0  0
   -3.9461   27.3760  -26.9350 C   0  0  0  0  0  0  0  0  0  0  0  0
   -3.7981   27.2738  -28.0004 H   0  0  0  0  0  0  0  0  0  0  0  0
   -3.0812   27.0793  -26.3595 H   0  0  0  0  0  0  0  0  0  0  0  0
   -5.2576   26.1040  -25.1850 C   0  0  0  0  0  0  0  0  0  0  0  0
   -4.4904   26.3137  -24.4838 H   0  0  0  0  0  0  0  0  0  0  0  0
   -6.3656   25.3691  -24.7791 C   0  0  0  0  0  0  0  0  0  0  0  0
   -6.4422   25.0325  -23.7783 H   0  0  0  0  0  0  0  0  0  0  0  0
   -4.2489   28.7920  -26.6348 C   0  0  0  0  0  0  0  0  0  0  0  0
   -4.4650   29.8843  -26.4097 N   0  0  0  0  0  0  0  0  0  0  0  0
  1  2  1  0  0  0  0
  1  8  2  0  0  0  0
  2  3  1  0  0  0  0
  2  5  2  0  0  0  0
  3  4  1  0  0  0  0
  3 35  1  0  0  0  0
  5  6  1  0  0  0  0
  6  7  2  0  0  0  0
  6 13  1  0  0  0  0
  7  8  1  0  0  0  0
  7 10  1  0  0  0  0
  8  9  1  0  0  0  0
  9 15  1  0  0  0  0
 10 11  2  0  0  0  0
 11 12  1  0  0  0  0
 11 13  1  0  0  0  0
 13 14  1  0  0  0  0
 15 16  1  0  0  0  0
 15 17  1  0  0  0  0
 15 18  1  0  0  0  0
 18 19  1  0  0  0  0
 18 20  1  0  0  0  0
 18 32  1  0  0  0  0
 20 21  1  0  0  0  0
 20 22  1  0  0  0  0
 20 23  1  0  0  0  0
 23 24  1  0  0  0  0
 23 25  1  0  0  0  0
 23 26  1  0  0  0  0
 26 27  1  0  0  0  0
 26 28  1  0  0  0  0
 26 29  1  0  0  0  0
 29 30  1  0  0  0  0
 29 31  1  0  0  0  0
 29 32  1  0  0  0  0
 32 33  1  0  0  0  0
 32 34  1  0  0  0  0
 35 36  1  0  0  0  0
 35 46  2  0  0  0  0
 36 37  1  0  0  0  0
 36 38  2  0  0  0  0
 38 39  1  0  0  0  0
 38 40  1  0  0  0  0
 40 41  1  0  0  0  0
 40 44  2  0  0  0  0
 41 42  1  0  0  0  0
 41 43  1  0  0  0  0
 41 48  1  0  0  0  0
 44 45  1  0  0  0  0
 44 46  1  0  0  0  0
 46 47  1  0  0  0  0
 48 49  3  0  0  0  0
M  END
$$$$
cdk2_hardcastle_43
  MOE2024           3D

 45 48  0  0  0  0  0  0  0  0999 V2000
   -7.5390   22.7200  -23.9160 N   0  0  0  0  0  0  0  0  0  0  0  0
   -8.6260   23.3150  -24.4550 C   0  0  0  0  0  0  0  0  0  0  0  0
   -8.5151   24.3641  -25.3068 N   0  0  0  0  0  0  0  0  0  0  0  0
   -9.3919   24.5039  -25.8193 H   0  0  0  0  0  0  0  0  0  0  0  0
   -7.3247   24.4884  -26.1346 C   0  0  0  0  0  0  0  0  0  0  0  0
   -6.4369   24.1427  -25.6208 H   0  0  0  0  0  0  0  0  0  0  0  0
   -7.2275   25.5120  -26.4720 H   0  0  0  0  0  0  0  0  0  0  0  0
   -9.8770   22.8680  -24.1600 N   0  0  0  0  0  0  0  0  0  0  0  0
  -10.0420   21.8210  -23.3210 C   0  0  0  0  0  0  0  0  0  0  0  0
   -8.9440   21.1630  -22.7090 C   0  0  0  0  0  0  0  0  0  0  0  0
   -7.6210   21.6980  -23.0610 C   0  0  0  0  0  0  0  0  0  0  0  0
   -6.5050   21.1430  -22.5290 O   0  0  0  0  0  0  0  0  0  0  0  0
   -9.4180   20.1500  -21.8860 N   0  0  0  0  0  0  0  0  0  0  0  0
  -10.7750   20.2390  -22.0430 C   0  0  0  0  0  0  0  0  0  0  0  0
  -11.4594   19.5781  -21.5319 H   0  0  0  0  0  0  0  0  0  0  0  0
  -11.2090   21.2310  -22.8990 N   0  0  0  0  0  0  0  0  0  0  0  0
  -12.1574   21.4668  -23.1541 H   0  0  0  0  0  0  0  0  0  0  0  0
   -5.2040   21.6960  -22.7620 C   0  0  0  0  0  0  0  0  0  0  0  0
   -5.2486   22.7846  -22.7309 H   0  0  0  0  0  0  0  0  0  0  0  0
   -4.8292   21.3754  -23.7340 H   0  0  0  0  0  0  0  0  0  0  0  0
   -4.2940   21.1760  -21.6510 C   0  0  0  0  0  0  0  0  0  0  0  0
   -4.4098   20.1012  -21.5110 H   0  0  0  0  0  0  0  0  0  0  0  0
   -2.8370   21.3960  -22.0290 C   0  0  0  0  0  0  0  0  0  0  0  0
   -2.6858   22.4409  -22.3001 H   0  0  0  0  0  0  0  0  0  0  0  0
   -2.5816   20.7601  -22.8767 H   0  0  0  0  0  0  0  0  0  0  0  0
   -1.9540   21.0480  -20.8550 C   0  0  0  0  0  0  0  0  0  0  0  0
   -0.9067   21.1716  -21.1308 H   0  0  0  0  0  0  0  0  0  0  0  0
   -2.1307   20.0158  -20.5528 H   0  0  0  0  0  0  0  0  0  0  0  0
   -2.3000   21.9870  -19.7100 C   0  0  0  0  0  0  0  0  0  0  0  0
   -2.2689   23.0192  -20.0588 H   0  0  0  0  0  0  0  0  0  0  0  0
   -1.5845   21.8561  -18.8982 H   0  0  0  0  0  0  0  0  0  0  0  0
   -3.7020   21.6530  -19.2180 C   0  0  0  0  0  0  0  0  0  0  0  0
   -3.9603   22.3050  -18.3836 H   0  0  0  0  0  0  0  0  0  0  0  0
   -3.7355   20.6138  -18.8910 H   0  0  0  0  0  0  0  0  0  0  0  0
   -4.6920   21.8610  -20.3500 C   0  0  0  0  0  0  0  0  0  0  0  0
   -5.6591   21.4677  -20.0369 H   0  0  0  0  0  0  0  0  0  0  0  0
   -4.7786   22.9312  -20.5380 H   0  0  0  0  0  0  0  0  0  0  0  0
   -7.7636   21.7451  -28.6948 C   0  0  0  0  0  0  0  0  0  0  0  0
   -7.6643   20.7260  -28.9682 H   0  0  0  0  0  0  0  0  0  0  0  0
   -7.3771   22.2609  -27.4458 C   0  0  0  0  0  0  0  0  0  0  0  0
   -6.9600   21.6714  -26.6689 H   0  0  0  0  0  0  0  0  0  0  0  0
   -7.6037   23.6044  -27.3292 C   0  0  0  0  0  0  0  0  0  0  0  0
   -8.3116   24.2539  -28.7689 S   0  0  0  0  0  0  0  0  0  0  0  0
   -8.2857   22.6985  -29.5200 C   0  0  0  0  0  0  0  0  0  0  0  0
   -8.6489   22.5668  -30.5065 H   0  0  0  0  0  0  0  0  0  0  0  0
  1  2  1  0  0  0  0
  1 11  2  0  0  0  0
  2  3  1  0  0  0  0
  2  8  2  0  0  0  0
  3  4  1  0  0  0  0
  3  5  1  0  0  0  0
  5  6  1  0  0  0  0
  5  7  1  0  0  0  0
  5 42  1  0  0  0  0
  8  9  1  0  0  0  0
  9 10  2  0  0  0  0
  9 16  1  0  0  0  0
 10 11  1  0  0  0  0
 10 13  1  0  0  0  0
 11 12  1  0  0  0  0
 12 18  1  0  0  0  0
 13 14  2  0  0  0  0
 14 15  1  0  0  0  0
 14 16  1  0  0  0  0
 16 17  1  0  0  0  0
 18 19  1  0  0  0  0
 18 20  1  0  0  0  0
 18 21  1  0  0  0  0
 21 22  1  0  0  0  0
 21 23  1  0  0  0  0
 21 35  1  0  0  0  0
 23 24  1  0  0  0  0
 23 25  1  0  0  0  0
 23 26  1  0  0  0  0
 26 27  1  0  0  0  0
 26 28  1  0  0  0  0
 26 29  1  0  0  0  0
 29 30  1  0  0  0  0
 29 31  1  0  0  0  0
 29 32  1  0  0  0  0
 32 33  1  0  0  0  0
 32 34  1  0  0  0  0
 32 35  1  0  0  0  0
 35 36  1  0  0  0  0
 35 37  1  0  0  0  0
 38 39  1  0  0  0  0
 38 40  1  0  0  0  0
 38 44  2  0  0  0  0
 40 41  1  0  0  0  0
 40 42  2  0  0  0  0
 42 43  1  0  0  0  0
 43 44  1  0  0  0  0
 44 45  1  0  0  0  0
M  END
$$$$
cdk2_hardcastle_44
  MOE2024           3D

 50 53  0  0  0  0  0  0  0  0999 V2000
   -6.9330   21.9820  -24.3810 N   0  0  0  0  0  0  0  0  0  0  0  0
   -8.0200   22.5770  -24.9200 C   0  0  0  0  0  0  0  0  0  0  0  0
   -7.9020   23.6490  -25.7470 N   0  0  0  0  0  0  0  0  0  0  0  0
   -8.7600   23.8020  -26.2850 H   0  0  0  0  0  0  0  0  0  0  0  0
   -6.6280   23.9300  -26.4150 C   0  0  0  0  0  0  0  0  0  0  0  0
   -6.7760   24.6910  -27.1700 H   0  0  0  0  0  0  0  0  0  0  0  0
   -6.2140   23.0140  -26.8190 H   0  0  0  0  0  0  0  0  0  0  0  0
   -9.2710   22.1300  -24.6250 N   0  0  0  0  0  0  0  0  0  0  0  0
   -9.4360   21.0830  -23.7860 C   0  0  0  0  0  0  0  0  0  0  0  0
   -8.3380   20.4250  -23.1740 C   0  0  0  0  0  0  0  0  0  0  0  0
   -7.0150   20.9600  -23.5260 C   0  0  0  0  0  0  0  0  0  0  0  0
   -5.8990   20.4050  -22.9940 O   0  0  0  0  0  0  0  0  0  0  0  0
   -8.8120   19.4120  -22.3510 N   0  0  0  0  0  0  0  0  0  0  0  0
  -10.1690   19.5010  -22.5080 C   0  0  0  0  0  0  0  0  0  0  0  0
  -10.8530   18.8400  -21.9970 H   0  0  0  0  0  0  0  0  0  0  0  0
  -10.6030   20.4930  -23.3640 N   0  0  0  0  0  0  0  0  0  0  0  0
  -11.5510   20.7290  -23.6190 H   0  0  0  0  0  0  0  0  0  0  0  0
   -4.5980   20.9580  -23.2270 C   0  0  0  0  0  0  0  0  0  0  0  0
   -4.6430   22.0470  -23.1960 H   0  0  0  0  0  0  0  0  0  0  0  0
   -4.2230   20.6370  -24.1990 H   0  0  0  0  0  0  0  0  0  0  0  0
   -3.6880   20.4380  -22.1160 C   0  0  0  0  0  0  0  0  0  0  0  0
   -3.8040   19.3630  -21.9760 H   0  0  0  0  0  0  0  0  0  0  0  0
   -2.2310   20.6580  -22.4940 C   0  0  0  0  0  0  0  0  0  0  0  0
   -2.0800   21.7030  -22.7650 H   0  0  0  0  0  0  0  0  0  0  0  0
   -1.9760   20.0220  -23.3420 H   0  0  0  0  0  0  0  0  0  0  0  0
   -1.3480   20.3100  -21.3200 C   0  0  0  0  0  0  0  0  0  0  0  0
   -0.3010   20.4340  -21.5960 H   0  0  0  0  0  0  0  0  0  0  0  0
   -1.5250   19.2780  -21.0180 H   0  0  0  0  0  0  0  0  0  0  0  0
   -1.6940   21.2490  -20.1750 C   0  0  0  0  0  0  0  0  0  0  0  0
   -1.6630   22.2810  -20.5240 H   0  0  0  0  0  0  0  0  0  0  0  0
   -0.9780   21.1180  -19.3630 H   0  0  0  0  0  0  0  0  0  0  0  0
   -3.0960   20.9150  -19.6830 C   0  0  0  0  0  0  0  0  0  0  0  0
   -3.3540   21.5670  -18.8490 H   0  0  0  0  0  0  0  0  0  0  0  0
   -3.1300   19.8760  -19.3560 H   0  0  0  0  0  0  0  0  0  0  0  0
   -4.0860   21.1230  -20.8150 C   0  0  0  0  0  0  0  0  0  0  0  0
   -5.0530   20.7300  -20.5020 H   0  0  0  0  0  0  0  0  0  0  0  0
   -4.1730   22.1930  -21.0030 H   0  0  0  0  0  0  0  0  0  0  0  0
   -4.8390   25.5570  -23.4940 C   0  0  0  0  0  0  0  0  0  0  0  0
   -4.8740   26.1400  -22.6100 H   0  0  0  0  0  0  0  0  0  0  0  0
   -5.9620   25.2950  -24.2980 C   0  0  0  0  0  0  0  0  0  0  0  0
   -6.9360   25.6590  -24.0880 H   0  0  0  0  0  0  0  0  0  0  0  0
   -5.6810   24.4840  -25.3630 C   0  0  0  0  0  0  0  0  0  0  0  0
   -4.0060   24.0580  -25.3980 S   0  0  0  0  0  0  0  0  0  0  0  0
   -3.6940   24.9600  -23.9510 C   0  0  0  0  0  0  0  0  0  0  0  0
   -2.0630   24.9940  -23.2030 S   0  0  0  0  0  0  0  0  0  0  0  0
   -1.4760   26.4570  -23.5910 N   0  0  0  0  0  0  0  0  0  0  0  0
   -1.2680   26.5940  -24.5740 H   0  0  0  0  0  0  0  0  0  0  0  0
   -1.9380   27.2460  -23.1530 H   0  0  0  0  0  0  0  0  0  0  0  0
   -2.2160   24.9300  -21.7950 O   0  0  0  0  0  0  0  0  0  0  0  0
   -1.2540   24.0100  -23.8240 O   0  0  0  0  0  0  0  0  0  0  0  0
  1  2  1  0  0  0  0
  1 11  2  0  0  0  0
  2  3  1  0  0  0  0
  2  8  2  0  0  0  0
  3  4  1  0  0  0  0
  3  5  1  0  0  0  0
  5  6  1  0  0  0  0
  5  7  1  0  0  0  0
  5 42  1  0  0  0  0
  8  9  1  0  0  0  0
  9 10  2  0  0  0  0
  9 16  1  0  0  0  0
 10 11  1  0  0  0  0
 10 13  1  0  0  0  0
 11 12  1  0  0  0  0
 12 18  1  0  0  0  0
 13 14  2  0  0  0  0
 14 15  1  0  0  0  0
 14 16  1  0  0  0  0
 16 17  1  0  0  0  0
 18 19  1  0  0  0  0
 18 20  1  0  0  0  0
 18 21  1  0  0  0  0
 21 22  1  0  0  0  0
 21 23  1  0  0  0  0
 21 35  1  0  0  0  0
 23 24  1  0  0  0  0
 23 25  1  0  0  0  0
 23 26  1  0  0  0  0
 26 27  1  0  0  0  0
 26 28  1  0  0  0  0
 26 29  1  0  0  0  0
 29 30  1  0  0  0  0
 29 31  1  0  0  0  0
 29 32  1  0  0  0  0
 32 33  1  0  0  0  0
 32 34  1  0  0  0  0
 32 35  1  0  0  0  0
 35 36  1  0  0  0  0
 35 37  1  0  0  0  0
 38 39  1  0  0  0  0
 38 40  1  0  0  0  0
 38 44  2  0  0  0  0
 40 41  1  0  0  0  0
 40 42  2  0  0  0  0
 42 43  1  0  0  0  0
 43 44  1  0  0  0  0
 44 45  1  0  0  0  0
 45 46  1  0  0  0  0
 45 49  2  0  0  0  0
 45 50  2  0  0  0  0
 46 47  1  0  0  0  0
 46 48  1  0  0  0  0
M  END
$$$$
cdk2_hardcastle_46
  MOE2024           3D

 52 55  0  0  0  0  0  0  0  0999 V2000
   -6.4230   22.1640  -23.3840 N   0  0  0  0  0  0  0  0  0  0  0  0
   -7.5100   22.7590  -23.9230 C   0  0  0  0  0  0  0  0  0  0  0  0
   -7.3090   23.7990  -24.7830 N   0  0  0  0  0  0  0  0  0  0  0  0
   -8.4260   24.4380  -25.5400 N   0  0  0  0  0  0  0  0  0  0  0  0
   -9.3480   24.2870  -25.0870 H   0  0  0  0  0  0  0  0  0  0  0  0
   -6.3320   24.0520  -24.9810 H   0  0  0  0  0  0  0  0  0  0  0  0
   -8.7610   22.3120  -23.6280 N   0  0  0  0  0  0  0  0  0  0  0  0
   -8.9260   21.2650  -22.7890 C   0  0  0  0  0  0  0  0  0  0  0  0
   -7.8280   20.6070  -22.1770 C   0  0  0  0  0  0  0  0  0  0  0  0
   -6.5050   21.1420  -22.5290 C   0  0  0  0  0  0  0  0  0  0  0  0
   -5.3890   20.5870  -21.9970 O   0  0  0  0  0  0  0  0  0  0  0  0
   -8.3020   19.5940  -21.3540 N   0  0  0  0  0  0  0  0  0  0  0  0
   -9.6590   19.6830  -21.5110 C   0  0  0  0  0  0  0  0  0  0  0  0
  -10.3430   19.0220  -21.0000 H   0  0  0  0  0  0  0  0  0  0  0  0
  -10.0930   20.6750  -22.3670 N   0  0  0  0  0  0  0  0  0  0  0  0
  -11.0410   20.9110  -22.6220 H   0  0  0  0  0  0  0  0  0  0  0  0
   -4.0880   21.1400  -22.2300 C   0  0  0  0  0  0  0  0  0  0  0  0
   -4.1330   22.2290  -22.1990 H   0  0  0  0  0  0  0  0  0  0  0  0
   -3.7130   20.8190  -23.2020 H   0  0  0  0  0  0  0  0  0  0  0  0
   -3.1780   20.6200  -21.1190 C   0  0  0  0  0  0  0  0  0  0  0  0
   -3.2940   19.5450  -20.9790 H   0  0  0  0  0  0  0  0  0  0  0  0
   -1.7210   20.8400  -21.4970 C   0  0  0  0  0  0  0  0  0  0  0  0
   -1.5700   21.8850  -21.7680 H   0  0  0  0  0  0  0  0  0  0  0  0
   -1.4660   20.2040  -22.3450 H   0  0  0  0  0  0  0  0  0  0  0  0
   -0.8380   20.4920  -20.3230 C   0  0  0  0  0  0  0  0  0  0  0  0
    0.2090   20.6160  -20.5990 H   0  0  0  0  0  0  0  0  0  0  0  0
   -1.0150   19.4600  -20.0210 H   0  0  0  0  0  0  0  0  0  0  0  0
   -1.1840   21.4310  -19.1780 C   0  0  0  0  0  0  0  0  0  0  0  0
   -1.1530   22.4630  -19.5270 H   0  0  0  0  0  0  0  0  0  0  0  0
   -0.4680   21.3000  -18.3660 H   0  0  0  0  0  0  0  0  0  0  0  0
   -2.5860   21.0970  -18.6860 C   0  0  0  0  0  0  0  0  0  0  0  0
   -2.8440   21.7490  -17.8520 H   0  0  0  0  0  0  0  0  0  0  0  0
   -2.6190   20.0580  -18.3590 H   0  0  0  0  0  0  0  0  0  0  0  0
   -3.5760   21.3050  -19.8180 C   0  0  0  0  0  0  0  0  0  0  0  0
   -4.5430   20.9120  -19.5050 H   0  0  0  0  0  0  0  0  0  0  0  0
   -3.6630   22.3750  -20.0060 H   0  0  0  0  0  0  0  0  0  0  0  0
   -8.4580   24.1280  -29.7190 C   0  0  0  0  0  0  0  0  0  0  0  0
   -7.2420   24.2280  -29.0320 C   0  0  0  0  0  0  0  0  0  0  0  0
   -6.3330   24.2220  -29.5800 H   0  0  0  0  0  0  0  0  0  0  0  0
   -7.2130   24.3420  -27.6470 C   0  0  0  0  0  0  0  0  0  0  0  0
   -6.2880   24.4220  -27.1400 H   0  0  0  0  0  0  0  0  0  0  0  0
   -8.4130   24.3580  -26.9300 C   0  0  0  0  0  0  0  0  0  0  0  0
   -9.6350   24.2900  -27.6030 C   0  0  0  0  0  0  0  0  0  0  0  0
  -10.5430   24.3240  -27.0580 H   0  0  0  0  0  0  0  0  0  0  0  0
   -9.6520   24.1770  -28.9880 C   0  0  0  0  0  0  0  0  0  0  0  0
  -10.5800   24.1290  -29.5020 H   0  0  0  0  0  0  0  0  0  0  0  0
   -8.4870   23.9670  -31.5120 S   0  0  0  0  0  0  0  0  0  0  0  0
   -8.4350   22.3650  -31.7690 N   0  0  0  0  0  0  0  0  0  0  0  0
   -7.5650   21.9100  -31.5170 H   0  0  0  0  0  0  0  0  0  0  0  0
   -9.2610   21.8500  -31.4830 H   0  0  0  0  0  0  0  0  0  0  0  0
   -9.7290   24.4570  -31.9890 O   0  0  0  0  0  0  0  0  0  0  0  0
   -7.3010   24.5430  -32.0350 O   0  0  0  0  0  0  0  0  0  0  0  0
  1  2  1  0  0  0  0
  1 10  2  0  0  0  0
  2  3  1  0  0  0  0
  2  7  2  0  0  0  0
  3  4  1  0  0  0  0
  3  6  1  0  0  0  0
  4  5  1  0  0  0  0
  4 42  1  0  0  0  0
  7  8  1  0  0  0  0
  8  9  2  0  0  0  0
  8 15  1  0  0  0  0
  9 10  1  0  0  0  0
  9 12  1  0  0  0  0
 10 11  1  0  0  0  0
 11 17  1  0  0  0  0
 12 13  2  0  0  0  0
 13 14  1  0  0  0  0
 13 15  1  0  0  0  0
 15 16  1  0  0  0  0
 17 18  1  0  0  0  0
 17 19  1  0  0  0  0
 17 20  1  0  0  0  0
 20 21  1  0  0  0  0
 20 22  1  0  0  0  0
 20 34  1  0  0  0  0
 22 23  1  0  0  0  0
 22 24  1  0  0  0  0
 22 25  1  0  0  0  0
 25 26  1  0  0  0  0
 25 27  1  0  0  0  0
 25 28  1  0  0  0  0
 28 29  1  0  0  0  0
 28 30  1  0  0  0  0
 28 31  1  0  0  0  0
 31 32  1  0  0  0  0
 31 33  1  0  0  0  0
 31 34  1  0  0  0  0
 34 35  1  0  0  0  0
 34 36  1  0  0  0  0
 37 38  1  0  0  0  0
 37 45  2  0  0  0  0
 37 47  1  0  0  0  0
 38 39  1  0  0  0  0
 38 40  2  0  0  0  0
 40 41  1  0  0  0  0
 40 42  1  0  0  0  0
 42 43  2  0  0  0  0
 43 44  1  0  0  0  0
 43 45  1  0  0  0  0
 45 46  1  0  0  0  0
 47 48  1  0  0  0  0
 47 51  2  0  0  0  0
 47 52  2  0  0  0  0
 48 49  1  0  0  0  0
 48 50  1  0  0  0  0
M  END
$$$$
