cdk2_hardcastle_01_1047
     RDKit          3D

 35 37  0  0  0  0  0  0  0  0999 V2000
   -7.2680   22.3796  -24.2022 N   0  0  0  0  0  0  0  0  0  0  0  0
   -8.4115   22.5773  -24.9226 C   0  0  0  0  0  0  0  0  0  0  0  0
   -8.4055   23.5780  -25.8330 N   0  0  0  0  0  0  0  0  0  0  0  0
   -9.2090   23.7625  -26.3953 H   0  0  0  0  0  0  0  0  0  0  0  0
   -7.5932   24.1429  -25.9648 H   0  0  0  0  0  0  0  0  0  0  0  0
   -9.5460   21.8304  -24.7905 N   0  0  0  0  0  0  0  0  0  0  0  0
   -9.4595   20.8475  -23.8920 C   0  0  0  0  0  0  0  0  0  0  0  0
   -8.3324   20.5694  -23.1138 C   0  0  0  0  0  0  0  0  0  0  0  0
   -7.1999   21.3940  -23.2968 C   0  0  0  0  0  0  0  0  0  0  0  0
   -6.0656   21.1281  -22.5222 O   0  0  0  0  0  0  0  0  0  0  0  0
   -8.5781   19.4909  -22.2871 N   0  0  0  0  0  0  0  0  0  0  0  0
   -9.8251   19.1347  -22.5714 C   0  0  0  0  0  0  0  0  0  0  0  0
  -10.3574   18.3064  -22.1019 H   0  0  0  0  0  0  0  0  0  0  0  0
  -10.4034   19.9237  -23.5378 N   0  0  0  0  0  0  0  0  0  0  0  0
  -11.3332   19.8538  -23.9218 H   0  0  0  0  0  0  0  0  0  0  0  0
   -4.9310   21.9609  -22.7708 C   0  0  0  0  0  0  0  0  0  0  0  0
   -5.1423   23.0427  -22.6005 H   0  0  0  0  0  0  0  0  0  0  0  0
   -4.5838   21.8151  -23.8165 H   0  0  0  0  0  0  0  0  0  0  0  0
   -3.8358   21.5442  -21.7773 C   0  0  0  0  0  0  0  0  0  0  0  0
   -4.2479   21.6199  -20.7437 H   0  0  0  0  0  0  0  0  0  0  0  0
   -3.4032   20.0735  -21.9736 C   0  0  0  0  0  0  0  0  0  0  0  0
   -3.1284   19.9153  -23.0395 H   0  0  0  0  0  0  0  0  0  0  0  0
   -4.2556   19.4012  -21.7341 H   0  0  0  0  0  0  0  0  0  0  0  0
   -2.2040   19.7114  -21.0894 C   0  0  0  0  0  0  0  0  0  0  0  0
   -1.8971   18.6612  -21.2837 H   0  0  0  0  0  0  0  0  0  0  0  0
   -2.5003   19.7935  -20.0197 H   0  0  0  0  0  0  0  0  0  0  0  0
   -1.0263   20.6572  -21.3549 C   0  0  0  0  0  0  0  0  0  0  0  0
   -0.7265   20.5762  -22.4234 H   0  0  0  0  0  0  0  0  0  0  0  0
   -0.1574   20.3673  -20.7260 H   0  0  0  0  0  0  0  0  0  0  0  0
   -1.4309   22.1030  -21.0489 C   0  0  0  0  0  0  0  0  0  0  0  0
   -0.5786   22.7865  -21.2549 H   0  0  0  0  0  0  0  0  0  0  0  0
   -1.6862   22.1845  -19.9688 H   0  0  0  0  0  0  0  0  0  0  0  0
   -2.6432   22.5267  -21.8837 C   0  0  0  0  0  0  0  0  0  0  0  0
   -2.9717   23.5385  -21.5589 H   0  0  0  0  0  0  0  0  0  0  0  0
   -2.3323   22.5968  -22.9494 H   0  0  0  0  0  0  0  0  0  0  0  0
  1  2  2  0
  1  9  1  0
  2  3  1  0
  2  6  1  0
  3  4  1  0
  3  5  1  0
  6  7  2  0
  7  8  1  0
  7 14  1  0
  8  9  2  0
  8 11  1  0
  9 10  1  0
 10 16  1  0
 11 12  2  0
 12 13  1  0
 12 14  1  0
 14 15  1  0
 16 17  1  0
 16 18  1  0
 16 19  1  0
 19 20  1  0
 19 21  1  0
 19 33  1  0
 21 22  1  0
 21 23  1  0
 21 24  1  0
 24 25  1  0
 24 26  1  0
 24 27  1  0
 27 28  1  0
 27 29  1  0
 27 30  1  0
 30 31  1  0
 30 32  1  0
 30 33  1  0
 33 34  1  0
 33 35  1  0
M  END
> <intraLJ>
12.144    

> <intraEL>
-15.758   

> <intraDihe>
5.966     

> <interLJ>
0.000     

> <interEJ>
0.000     

> <gridLJ>
-7.259    

> <gridEL>
0.000     

> <totalE>
-4.907    

> <LGFE>
-7.259  

> <LE>
-0.403  

> <SMILES>
Nc1nc(OCC2CCCCC2)c2nc[nH]c2n1

> <atom.dprop.GFE>
-0.2950 -0.0513 -1.8210 0.0000 0.0000 -0.3070 -0.1255 -0.1195 -0.1359 -0.5900 -0.7770 -0.1958 0.0000 -0.8950 0.0000 -0.3430 0.0000 0.0000 -0.3630 0.0000 -0.5065 0.0000 0.0000 -0.3593 0.0000 0.0000 -0.2218 0.0000 0.0000 0.0386 0.0000 0.0000 -0.1915 0.0000 0.0000

> <atom.prop.CLASS>
IMIN GEHC FORN NCLA NCLA IMIN GEHC GEHC BENC DMEO IMIN GEHC NCLA IMIH NCLA PRPC NCLA NCLA PRPC NCLA PRPC NCLA NCLA PRPC NCLA NCLA PRPC NCLA NCLA PRPC NCLA NCLA PRPC NCLA NCLA

> <cluster_id>
1

> <rmsd_to_cluster_rep>
0.00    

> <ligRMSD>
1.48    

> <ligCOMD>
1.07    

$$$$
cdk2_hardcastle_02_1h1q_1016
     RDKit          3D

 45 48  0  0  0  0  0  0  0  0999 V2000
   -7.2028   21.8251  -24.4922 N   0  0  0  0  0  0  0  0  0  0  0  0
   -8.1119   22.5089  -25.2575 C   0  0  0  0  0  0  0  0  0  0  0  0
   -7.7181   23.5984  -25.9955 N   0  0  0  0  0  0  0  0  0  0  0  0
   -8.4849   24.1491  -26.3738 H   0  0  0  0  0  0  0  0  0  0  0  0
   -9.4363   22.2167  -25.3094 N   0  0  0  0  0  0  0  0  0  0  0  0
   -9.8163   21.2677  -24.4581 C   0  0  0  0  0  0  0  0  0  0  0  0
   -8.9680   20.5644  -23.5887 C   0  0  0  0  0  0  0  0  0  0  0  0
   -7.5961   20.8970  -23.6089 C   0  0  0  0  0  0  0  0  0  0  0  0
   -6.7097   20.3103  -22.6676 O   0  0  0  0  0  0  0  0  0  0  0  0
   -9.6947   19.6539  -22.8567 N   0  0  0  0  0  0  0  0  0  0  0  0
  -10.9444   19.8189  -23.2749 C   0  0  0  0  0  0  0  0  0  0  0  0
  -11.8021   19.2571  -22.9038 H   0  0  0  0  0  0  0  0  0  0  0  0
  -11.0709   20.7902  -24.2373 N   0  0  0  0  0  0  0  0  0  0  0  0
  -11.9100   21.1017  -24.7020 H   0  0  0  0  0  0  0  0  0  0  0  0
   -5.3795   20.8301  -22.8331 C   0  0  0  0  0  0  0  0  0  0  0  0
   -5.3643   21.9429  -22.7383 H   0  0  0  0  0  0  0  0  0  0  0  0
   -5.0221   20.5615  -23.8534 H   0  0  0  0  0  0  0  0  0  0  0  0
   -4.3529   20.3139  -21.8011 C   0  0  0  0  0  0  0  0  0  0  0  0
   -4.4717   19.2175  -21.6619 H   0  0  0  0  0  0  0  0  0  0  0  0
   -2.9308   20.5766  -22.3575 C   0  0  0  0  0  0  0  0  0  0  0  0
   -2.8652   21.6431  -22.6696 H   0  0  0  0  0  0  0  0  0  0  0  0
   -2.7681   19.9473  -23.2598 H   0  0  0  0  0  0  0  0  0  0  0  0
   -1.8165   20.3007  -21.3435 C   0  0  0  0  0  0  0  0  0  0  0  0
   -0.8340   20.5770  -21.7847 H   0  0  0  0  0  0  0  0  0  0  0  0
   -1.7985   19.2118  -21.1146 H   0  0  0  0  0  0  0  0  0  0  0  0
   -2.0367   21.0787  -20.0409 C   0  0  0  0  0  0  0  0  0  0  0  0
   -1.9881   22.1696  -20.2550 H   0  0  0  0  0  0  0  0  0  0  0  0
   -1.2347   20.8310  -19.3126 H   0  0  0  0  0  0  0  0  0  0  0  0
   -3.4088   20.7445  -19.4413 C   0  0  0  0  0  0  0  0  0  0  0  0
   -3.5680   21.3396  -18.5157 H   0  0  0  0  0  0  0  0  0  0  0  0
   -3.4285   19.6664  -19.1665 H   0  0  0  0  0  0  0  0  0  0  0  0
   -4.5440   21.0247  -20.4356 C   0  0  0  0  0  0  0  0  0  0  0  0
   -5.5126   20.7099  -19.9906 H   0  0  0  0  0  0  0  0  0  0  0  0
   -4.5858   22.1241  -20.6029 H   0  0  0  0  0  0  0  0  0  0  0  0
   -6.4444   24.2091  -25.9616 C   0  0  0  0  0  0  0  0  0  0  0  0
   -5.6157   24.1368  -27.0899 C   0  0  0  0  0  0  0  0  0  0  0  0
   -5.9303   23.5873  -27.9655 H   0  0  0  0  0  0  0  0  0  0  0  0
   -4.3682   24.7756  -27.0856 C   0  0  0  0  0  0  0  0  0  0  0  0
   -3.7288   24.7157  -27.9541 H   0  0  0  0  0  0  0  0  0  0  0  0
   -3.9442   25.4845  -25.9533 C   0  0  0  0  0  0  0  0  0  0  0  0
   -2.9784   25.9680  -25.9502 H   0  0  0  0  0  0  0  0  0  0  0  0
   -4.7738   25.5770  -24.8305 C   0  0  0  0  0  0  0  0  0  0  0  0
   -4.4526   26.1339  -23.9622 H   0  0  0  0  0  0  0  0  0  0  0  0
   -6.0275   24.9617  -24.8428 C   0  0  0  0  0  0  0  0  0  0  0  0
   -6.6660   25.0606  -23.9769 H   0  0  0  0  0  0  0  0  0  0  0  0
  1  2  2  0
  1  8  1  0
  2  3  1  0
  2  5  1  0
  3  4  1  0
  3 35  1  0
  5  6  2  0
  6  7  1  0
  6 13  1  0
  7  8  2  0
  7 10  1  0
  8  9  1  0
  9 15  1  0
 10 11  2  0
 11 12  1  0
 11 13  1  0
 13 14  1  0
 15 16  1  0
 15 17  1  0
 15 18  1  0
 18 19  1  0
 18 20  1  0
 18 32  1  0
 20 21  1  0
 20 22  1  0
 20 23  1  0
 23 24  1  0
 23 25  1  0
 23 26  1  0
 26 27  1  0
 26 28  1  0
 26 29  1  0
 29 30  1  0
 29 31  1  0
 29 32  1  0
 32 33  1  0
 32 34  1  0
 35 36  2  0
 35 44  1  0
 36 37  1  0
 36 38  1  0
 38 39  1  0
 38 40  2  0
 40 41  1  0
 40 42  1  0
 42 43  1  0
 42 44  2  0
 44 45  1  0
M  END
> <intraLJ>
27.106    

> <intraEL>
-16.811   

> <intraDihe>
9.151     

> <interLJ>
0.000     

> <interEJ>
0.000     

> <gridLJ>
-6.517    

> <gridEL>
0.000     

> <totalE>
12.929    

> <LGFE>
-6.517  

> <LE>
-0.272  

> <SMILES>
c1ccc(Nc2nc(OCC3CCCCC3)c3nc[nH]c3n2)cc1

> <atom.dprop.GFE>
-0.2950 -0.0513 -1.8210 0.0000 -0.3070 -0.1255 -0.2261 -0.2457 -0.4810 -1.0750 -0.1036 0.0000 -0.1170 0.0000 -0.4053 0.0000 0.0000 -0.4229 0.0000 -0.5065 0.0000 0.0000 -0.3593 0.0000 0.0000 -0.0773 0.0000 0.0000 0.1775 0.0000 0.0000 -0.1372 0.0000 0.0000 -0.0369 0.0882 0.0000 -0.0047 0.0000 0.0159 0.0000 0.0040 0.0000 -0.0047 0.0000

> <atom.prop.CLASS>
IMIN GEHC FORN NCLA IMIN GEHC GEHC BENC DMEO IMIN GEHC NCLA IMIH NCLA PRPC NCLA NCLA PRPC NCLA PRPC NCLA NCLA PRPC NCLA NCLA PRPC NCLA NCLA PRPC NCLA NCLA PRPC NCLA NCLA BENC BENC NCLA BENC NCLA BENC NCLA BENC NCLA BENC NCLA

> <cluster_id>
1

> <rmsd_to_cluster_rep>
0.00    

> <ligRMSD>
1.11    

> <ligCOMD>
0.99    

$$$$
cdk2_hardcastle_03_1h1s_42
     RDKit          3D

 50 53  0  0  0  0  0  0  0  0999 V2000
   -6.8906   21.3637  -23.4026 N   0  0  0  0  0  0  0  0  0  0  0  0
   -8.0465   21.6769  -24.0554 C   0  0  0  0  0  0  0  0  0  0  0  0
   -8.0223   22.6810  -24.9977 N   0  0  0  0  0  0  0  0  0  0  0  0
   -8.9383   22.9364  -25.3582 H   0  0  0  0  0  0  0  0  0  0  0  0
   -9.2428   21.0706  -23.8063 N   0  0  0  0  0  0  0  0  0  0  0  0
   -9.2135   20.2030  -22.7874 C   0  0  0  0  0  0  0  0  0  0  0  0
   -8.0793   19.8887  -22.0234 C   0  0  0  0  0  0  0  0  0  0  0  0
   -6.8746   20.5316  -22.3632 C   0  0  0  0  0  0  0  0  0  0  0  0
   -5.7123   20.2768  -21.6174 O   0  0  0  0  0  0  0  0  0  0  0  0
   -8.3929   18.9541  -21.0634 N   0  0  0  0  0  0  0  0  0  0  0  0
   -9.6855   18.7179  -21.2473 C   0  0  0  0  0  0  0  0  0  0  0  0
  -10.2777   18.0179  -20.6570 H   0  0  0  0  0  0  0  0  0  0  0  0
  -10.2297   19.4493  -22.2773 N   0  0  0  0  0  0  0  0  0  0  0  0
  -11.1819   19.4412  -22.6091 H   0  0  0  0  0  0  0  0  0  0  0  0
   -4.5340   20.8466  -22.2090 C   0  0  0  0  0  0  0  0  0  0  0  0
   -4.5781   21.9597  -22.2941 H   0  0  0  0  0  0  0  0  0  0  0  0
   -4.3813   20.4105  -23.2210 H   0  0  0  0  0  0  0  0  0  0  0  0
   -3.3084   20.5757  -21.3317 C   0  0  0  0  0  0  0  0  0  0  0  0
   -3.2208   19.4759  -21.1777 H   0  0  0  0  0  0  0  0  0  0  0  0
   -3.4586   21.2504  -19.9507 C   0  0  0  0  0  0  0  0  0  0  0  0
   -4.3650   20.8599  -19.4393 H   0  0  0  0  0  0  0  0  0  0  0  0
   -3.5888   22.3458  -20.0935 H   0  0  0  0  0  0  0  0  0  0  0  0
   -2.2303   21.0006  -19.0691 C   0  0  0  0  0  0  0  0  0  0  0  0
   -2.1627   19.9104  -18.8548 H   0  0  0  0  0  0  0  0  0  0  0  0
   -2.3454   21.5354  -18.1016 H   0  0  0  0  0  0  0  0  0  0  0  0
   -0.9339   21.4489  -19.7607 C   0  0  0  0  0  0  0  0  0  0  0  0
   -0.0587   21.1809  -19.1307 H   0  0  0  0  0  0  0  0  0  0  0  0
   -0.9547   22.5561  -19.8716 H   0  0  0  0  0  0  0  0  0  0  0  0
   -0.7852   20.8187  -21.1544 C   0  0  0  0  0  0  0  0  0  0  0  0
   -0.6501   19.7201  -21.0360 H   0  0  0  0  0  0  0  0  0  0  0  0
    0.1194   21.2250  -21.6562 H   0  0  0  0  0  0  0  0  0  0  0  0
   -2.0204   21.0677  -22.0273 C   0  0  0  0  0  0  0  0  0  0  0  0
   -2.1099   22.1577  -22.2303 H   0  0  0  0  0  0  0  0  0  0  0  0
   -1.8986   20.5447  -23.0005 H   0  0  0  0  0  0  0  0  0  0  0  0
   -6.9296   23.5187  -25.3592 C   0  0  0  0  0  0  0  0  0  0  0  0
   -6.4294   23.4255  -26.6651 C   0  0  0  0  0  0  0  0  0  0  0  0
   -6.8289   22.6907  -27.3500 H   0  0  0  0  0  0  0  0  0  0  0  0
   -5.4208   24.2929  -27.1059 C   0  0  0  0  0  0  0  0  0  0  0  0
   -5.0685   24.2091  -28.1238 H   0  0  0  0  0  0  0  0  0  0  0  0
   -4.8740   25.2639  -26.2433 C   0  0  0  0  0  0  0  0  0  0  0  0
   -5.3892   25.3711  -24.9386 C   0  0  0  0  0  0  0  0  0  0  0  0
   -5.0232   26.1299  -24.2624 H   0  0  0  0  0  0  0  0  0  0  0  0
   -6.4137   24.5242  -24.5102 C   0  0  0  0  0  0  0  0  0  0  0  0
   -6.8148   24.6759  -23.5197 H   0  0  0  0  0  0  0  0  0  0  0  0
   -3.6794   26.4211  -26.8435 S   0  0  0  0  0  0  0  0  0  0  0  0
   -2.5674   25.5844  -27.2103 O   0  0  0  0  0  0  0  0  0  0  0  0
   -3.5672   27.4167  -25.8087 O   0  0  0  0  0  0  0  0  0  0  0  0
   -4.4098   27.0826  -28.2011 N   0  0  0  0  0  0  0  0  0  0  0  0
   -4.5187   26.4346  -28.9798 H   0  0  0  0  0  0  0  0  0  0  0  0
   -3.9768   27.9464  -28.5257 H   0  0  0  0  0  0  0  0  0  0  0  0
  1  2  2  0
  1  8  1  0
  2  3  1  0
  2  5  1  0
  3  4  1  0
  3 35  1  0
  5  6  2  0
  6  7  1  0
  6 13  1  0
  7  8  2  0
  7 10  1  0
  8  9  1  0
  9 15  1  0
 10 11  2  0
 11 12  1  0
 11 13  1  0
 13 14  1  0
 15 16  1  0
 15 17  1  0
 15 18  1  0
 18 19  1  0
 18 20  1  0
 18 32  1  0
 20 21  1  0
 20 22  1  0
 20 23  1  0
 23 24  1  0
 23 25  1  0
 23 26  1  0
 26 27  1  0
 26 28  1  0
 26 29  1  0
 29 30  1  0
 29 31  1  0
 29 32  1  0
 32 33  1  0
 32 34  1  0
 35 36  2  0
 35 43  1  0
 36 37  1  0
 36 38  1  0
 38 39  1  0
 38 40  2  0
 40 41  1  0
 40 45  1  0
 41 42  1  0
 41 43  2  0
 43 44  1  0
 45 46  2  0
 45 47  2  0
 45 48  1  0
 48 49  1  0
 48 50  1  0
M  END
> <intraLJ>
26.324    

> <intraEL>
-18.685   

> <intraDihe>
15.490    

> <interLJ>
0.000     

> <interEJ>
0.000     

> <gridLJ>
-5.291    

> <gridEL>
0.000     

> <totalE>
17.839    

> <LGFE>
-5.291  

> <LE>
-0.189  

> <SMILES>
NS(=O)(=O)c1ccc(Nc2nc(OCC3CCCCC3)c3nc[nH]c3n2)cc1

> <atom.dprop.GFE>
0.0910 0.0992 -1.6080 0.0000 0.1140 -0.2261 -0.0999 -0.1107 -1.2450 -0.5800 -0.1149 0.0000 -0.9870 0.0000 -0.3553 0.0000 0.0000 -0.3493 0.0000 0.0386 0.0000 0.0000 0.0759 0.0000 0.0000 -0.0350 0.0000 0.0000 -0.2218 0.0000 0.0000 -0.3906 0.0000 0.0000 -0.0401 0.0332 0.0000 0.0882 0.0000 0.0523 0.0040 0.0000 -0.0185 0.0000 0.0000 -0.0950 0.4210 0.1690 0.0000 0.0000

> <atom.prop.CLASS>
IMIN GEHC FORN NCLA IMIN GEHC GEHC BENC DMEO IMIN GEHC NCLA IMIH NCLA PRPC NCLA NCLA PRPC NCLA PRPC NCLA NCLA PRPC NCLA NCLA PRPC NCLA NCLA PRPC NCLA NCLA PRPC NCLA NCLA BENC BENC NCLA BENC NCLA BENC BENC NCLA BENC NCLA NCLA FORO FORO FORN NCLA NCLA

> <cluster_id>
1

> <rmsd_to_cluster_rep>
0.00    

> <ligRMSD>
1.90    

> <ligCOMD>
0.93    

$$$$
cdk2_hardcastle_07_88
     RDKit          3D

 38 40  0  0  0  0  0  0  0  0999 V2000
   -7.3591   22.4250  -24.0289 N   0  0  0  0  0  0  0  0  0  0  0  0
   -8.4078   22.5295  -24.9058 C   0  0  0  0  0  0  0  0  0  0  0  0
   -8.3890   23.5346  -25.8400 N   0  0  0  0  0  0  0  0  0  0  0  0
   -9.0935   23.4534  -26.5701 H   0  0  0  0  0  0  0  0  0  0  0  0
   -7.1317   24.0319  -26.4320 C   0  0  0  0  0  0  0  0  0  0  0  0
   -6.4234   24.3739  -25.6462 H   0  0  0  0  0  0  0  0  0  0  0  0
   -7.3399   24.8977  -27.0986 H   0  0  0  0  0  0  0  0  0  0  0  0
   -6.6376   23.2394  -27.0352 H   0  0  0  0  0  0  0  0  0  0  0  0
   -9.4887   21.6963  -24.9251 N   0  0  0  0  0  0  0  0  0  0  0  0
   -9.4721   20.7508  -23.9857 C   0  0  0  0  0  0  0  0  0  0  0  0
   -8.4548   20.5729  -23.0410 C   0  0  0  0  0  0  0  0  0  0  0  0
   -7.3533   21.4659  -23.0928 C   0  0  0  0  0  0  0  0  0  0  0  0
   -6.3181   21.3069  -22.1537 O   0  0  0  0  0  0  0  0  0  0  0  0
   -8.7580   19.5046  -22.2181 N   0  0  0  0  0  0  0  0  0  0  0  0
   -9.9281   19.0610  -22.6656 C   0  0  0  0  0  0  0  0  0  0  0  0
  -10.4749   18.2156  -22.2460 H   0  0  0  0  0  0  0  0  0  0  0  0
  -10.4033   19.7812  -23.7352 N   0  0  0  0  0  0  0  0  0  0  0  0
  -11.2625   19.6422  -24.2447 H   0  0  0  0  0  0  0  0  0  0  0  0
   -5.1386   22.0838  -22.3900 C   0  0  0  0  0  0  0  0  0  0  0  0
   -5.2875   23.1546  -22.1179 H   0  0  0  0  0  0  0  0  0  0  0  0
   -4.8508   22.0143  -23.4618 H   0  0  0  0  0  0  0  0  0  0  0  0
   -4.0052   21.5295  -21.5044 C   0  0  0  0  0  0  0  0  0  0  0  0
   -4.2031   21.8227  -20.4477 H   0  0  0  0  0  0  0  0  0  0  0  0
   -3.9513   19.9825  -21.5476 C   0  0  0  0  0  0  0  0  0  0  0  0
   -3.9587   19.6550  -22.6104 H   0  0  0  0  0  0  0  0  0  0  0  0
   -4.8590   19.5691  -21.0562 H   0  0  0  0  0  0  0  0  0  0  0  0
   -2.7018   19.4077  -20.8640 C   0  0  0  0  0  0  0  0  0  0  0  0
   -2.6731   18.3055  -21.0057 H   0  0  0  0  0  0  0  0  0  0  0  0
   -2.7569   19.6141  -19.7719 H   0  0  0  0  0  0  0  0  0  0  0  0
   -1.4190   20.0363  -21.4216 C   0  0  0  0  0  0  0  0  0  0  0  0
   -1.3406   19.8111  -22.5085 H   0  0  0  0  0  0  0  0  0  0  0  0
   -0.5316   19.6046  -20.9108 H   0  0  0  0  0  0  0  0  0  0  0  0
   -1.4507   21.5542  -21.2197 C   0  0  0  0  0  0  0  0  0  0  0  0
   -0.5156   22.0086  -21.6133 H   0  0  0  0  0  0  0  0  0  0  0  0
   -1.5121   21.7757  -20.1309 H   0  0  0  0  0  0  0  0  0  0  0  0
   -2.6605   22.1692  -21.9283 C   0  0  0  0  0  0  0  0  0  0  0  0
   -2.6893   23.2610  -21.7189 H   0  0  0  0  0  0  0  0  0  0  0  0
   -2.5332   22.0371  -23.0257 H   0  0  0  0  0  0  0  0  0  0  0  0
  1  2  2  0
  1 12  1  0
  2  3  1  0
  2  9  1  0
  3  4  1  0
  3  5  1  0
  5  6  1  0
  5  7  1  0
  5  8  1  0
  9 10  2  0
 10 11  1  0
 10 17  1  0
 11 12  2  0
 11 14  1  0
 12 13  1  0
 13 19  1  0
 14 15  2  0
 15 16  1  0
 15 17  1  0
 17 18  1  0
 19 20  1  0
 19 21  1  0
 19 22  1  0
 22 23  1  0
 22 24  1  0
 22 36  1  0
 24 25  1  0
 24 26  1  0
 24 27  1  0
 27 28  1  0
 27 29  1  0
 27 30  1  0
 30 31  1  0
 30 32  1  0
 30 33  1  0
 33 34  1  0
 33 35  1  0
 33 36  1  0
 36 37  1  0
 36 38  1  0
M  END
> <intraLJ>
13.250    

> <intraEL>
-7.359    

> <intraDihe>
11.737    

> <interLJ>
0.000     

> <interEJ>
0.000     

> <gridLJ>
-7.208    

> <gridEL>
0.000     

> <totalE>
10.420    

> <LGFE>
-7.208  

> <LE>
-0.379  

> <SMILES>
CNc1nc(OCC2CCCCC2)c2nc[nH]c2n1

> <atom.dprop.GFE>
-0.2950 -0.0513 -1.6010 0.0000 -0.2614 0.0000 0.0000 0.0000 -0.3070 -0.1255 -0.2261 -0.1359 -0.5900 -0.7770 -0.1958 0.0000 -0.8950 0.0000 -0.2754 0.0000 0.0000 -0.1805 0.0000 -0.2238 0.0000 0.0000 -0.2278 0.0000 0.0000 -0.3593 0.0000 0.0000 -0.2887 0.0000 0.0000 -0.1915 0.0000 0.0000

> <atom.prop.CLASS>
IMIN GEHC FORN NCLA PRPC NCLA NCLA NCLA IMIN GEHC GEHC BENC DMEO IMIN GEHC NCLA IMIH NCLA PRPC NCLA NCLA PRPC NCLA PRPC NCLA NCLA PRPC NCLA NCLA PRPC NCLA NCLA PRPC NCLA NCLA PRPC NCLA NCLA

> <cluster_id>
1

> <rmsd_to_cluster_rep>
0.00    

> <ligRMSD>
1.61    

> <ligCOMD>
1.06    

$$$$
cdk2_hardcastle_08_618
     RDKit          3D

 41 43  0  0  0  0  0  0  0  0999 V2000
   -7.2334   22.3750  -24.2386 N   0  0  0  0  0  0  0  0  0  0  0  0
   -8.3650   22.5765  -24.9863 C   0  0  0  0  0  0  0  0  0  0  0  0
   -8.3839   23.5795  -25.9137 N   0  0  0  0  0  0  0  0  0  0  0  0
   -9.1174   23.5099  -26.6152 H   0  0  0  0  0  0  0  0  0  0  0  0
   -7.1701   24.3193  -26.3188 C   0  0  0  0  0  0  0  0  0  0  0  0
   -6.9008   25.4242  -25.2992 C   0  0  0  0  0  0  0  0  0  0  0  0
   -6.0029   26.0084  -25.5934 H   0  0  0  0  0  0  0  0  0  0  0  0
   -6.7203   24.9911  -24.2914 H   0  0  0  0  0  0  0  0  0  0  0  0
   -7.7643   26.1212  -25.2355 H   0  0  0  0  0  0  0  0  0  0  0  0
   -7.3232   24.7708  -27.3249 H   0  0  0  0  0  0  0  0  0  0  0  0
   -6.2932   23.6366  -26.3647 H   0  0  0  0  0  0  0  0  0  0  0  0
   -9.5028   21.8323  -24.8979 N   0  0  0  0  0  0  0  0  0  0  0  0
   -9.4417   20.8449  -24.0094 C   0  0  0  0  0  0  0  0  0  0  0  0
   -8.3428   20.5682  -23.1882 C   0  0  0  0  0  0  0  0  0  0  0  0
   -7.1975   21.3915  -23.3286 C   0  0  0  0  0  0  0  0  0  0  0  0
   -6.0858   21.1318  -22.5077 O   0  0  0  0  0  0  0  0  0  0  0  0
   -8.6230   19.4875  -22.3768 N   0  0  0  0  0  0  0  0  0  0  0  0
   -9.8589   19.1324  -22.7112 C   0  0  0  0  0  0  0  0  0  0  0  0
  -10.4097   18.3033  -22.2654 H   0  0  0  0  0  0  0  0  0  0  0  0
  -10.3982   19.9216  -23.6978 N   0  0  0  0  0  0  0  0  0  0  0  0
  -11.3130   19.8542  -24.1171 H   0  0  0  0  0  0  0  0  0  0  0  0
   -4.9091   21.8931  -22.8008 C   0  0  0  0  0  0  0  0  0  0  0  0
   -5.0866   22.9879  -22.6872 H   0  0  0  0  0  0  0  0  0  0  0  0
   -4.5742   21.6817  -23.8398 H   0  0  0  0  0  0  0  0  0  0  0  0
   -3.8048   21.4939  -21.8017 C   0  0  0  0  0  0  0  0  0  0  0  0
   -4.1968   21.6263  -20.7671 H   0  0  0  0  0  0  0  0  0  0  0  0
   -3.4065   20.0048  -21.9532 C   0  0  0  0  0  0  0  0  0  0  0  0
   -3.1981   19.7984  -23.0259 H   0  0  0  0  0  0  0  0  0  0  0  0
   -4.2588   19.3627  -21.6408 H   0  0  0  0  0  0  0  0  0  0  0  0
   -2.1651   19.6309  -21.1290 C   0  0  0  0  0  0  0  0  0  0  0  0
   -1.8770   18.5793  -21.3450 H   0  0  0  0  0  0  0  0  0  0  0  0
   -2.4116   19.7060  -20.0464 H   0  0  0  0  0  0  0  0  0  0  0  0
   -0.9872   20.5648  -21.4333 C   0  0  0  0  0  0  0  0  0  0  0  0
   -0.7123   20.4722  -22.5075 H   0  0  0  0  0  0  0  0  0  0  0  0
   -0.1059   20.2759  -20.8214 H   0  0  0  0  0  0  0  0  0  0  0  0
   -1.3779   22.0155  -21.1341 C   0  0  0  0  0  0  0  0  0  0  0  0
   -0.5211   22.6905  -21.3493 H   0  0  0  0  0  0  0  0  0  0  0  0
   -1.6294   22.1088  -20.0540 H   0  0  0  0  0  0  0  0  0  0  0  0
   -2.5890   22.4372  -21.9710 C   0  0  0  0  0  0  0  0  0  0  0  0
   -2.8834   23.4719  -21.6894 H   0  0  0  0  0  0  0  0  0  0  0  0
   -2.2927   22.4481  -23.0433 H   0  0  0  0  0  0  0  0  0  0  0  0
  1  2  2  0
  1 15  1  0
  2  3  1  0
  2 12  1  0
  3  4  1  0
  3  5  1  0
  5  6  1  0
  5 10  1  0
  5 11  1  0
  6  7  1  0
  6  8  1  0
  6  9  1  0
 12 13  2  0
 13 14  1  0
 13 20  1  0
 14 15  2  0
 14 17  1  0
 15 16  1  0
 16 22  1  0
 17 18  2  0
 18 19  1  0
 18 20  1  0
 20 21  1  0
 22 23  1  0
 22 24  1  0
 22 25  1  0
 25 26  1  0
 25 27  1  0
 25 39  1  0
 27 28  1  0
 27 29  1  0
 27 30  1  0
 30 31  1  0
 30 32  1  0
 30 33  1  0
 33 34  1  0
 33 35  1  0
 33 36  1  0
 36 37  1  0
 36 38  1  0
 36 39  1  0
 39 40  1  0
 39 41  1  0
M  END
> <intraLJ>
14.220    

> <intraEL>
-8.962    

> <intraDihe>
14.480    

> <interLJ>
0.000     

> <interEJ>
0.000     

> <gridLJ>
-7.678    

> <gridEL>
0.000     

> <totalE>
12.060    

> <LGFE>
-7.678  

> <LE>
-0.384  

> <SMILES>
CCNc1nc(OCC2CCCCC2)c2nc[nH]c2n1

> <atom.dprop.GFE>
-0.2950 -0.0513 -1.8210 0.0000 -0.2614 -0.1535 0.0000 0.0000 0.0000 0.0000 0.0000 -0.3070 -0.1255 -0.1195 -0.1359 -0.5900 -0.7770 -0.1958 0.0000 -0.8950 0.0000 -0.3430 0.0000 0.0000 -0.3630 0.0000 -0.5065 0.0000 0.0000 -0.3593 0.0000 0.0000 -0.2311 0.0000 0.0000 0.0440 0.0000 0.0000 -0.1915 0.0000 0.0000

> <atom.prop.CLASS>
IMIN GEHC FORN NCLA PRPC PRPC NCLA NCLA NCLA NCLA NCLA IMIN GEHC GEHC BENC DMEO IMIN GEHC NCLA IMIH NCLA PRPC NCLA NCLA PRPC NCLA PRPC NCLA NCLA PRPC NCLA NCLA PRPC NCLA NCLA PRPC NCLA NCLA PRPC NCLA NCLA

> <cluster_id>
1

> <rmsd_to_cluster_rep>
0.00    

> <ligRMSD>
1.60    

> <ligCOMD>
0.97    

$$$$
cdk2_hardcastle_09_1186
     RDKit          3D

 44 46  0  0  0  0  0  0  0  0999 V2000
   -7.3541   22.4224  -23.7706 N   0  0  0  0  0  0  0  0  0  0  0  0
   -8.3181   22.4829  -24.7498 C   0  0  0  0  0  0  0  0  0  0  0  0
   -8.2717   23.4241  -25.7498 N   0  0  0  0  0  0  0  0  0  0  0  0
   -8.8247   23.1867  -26.5702 H   0  0  0  0  0  0  0  0  0  0  0  0
   -7.1357   24.3498  -26.0186 C   0  0  0  0  0  0  0  0  0  0  0  0
   -6.8632   25.3556  -24.8786 C   0  0  0  0  0  0  0  0  0  0  0  0
   -6.1276   26.1169  -25.2143 H   0  0  0  0  0  0  0  0  0  0  0  0
   -6.4474   24.8493  -23.9841 H   0  0  0  0  0  0  0  0  0  0  0  0
   -7.7996   25.8782  -24.5894 H   0  0  0  0  0  0  0  0  0  0  0  0
   -7.4450   24.9634  -26.9029 H   0  0  0  0  0  0  0  0  0  0  0  0
   -5.8685   23.5800  -26.4510 C   0  0  0  0  0  0  0  0  0  0  0  0
   -5.0886   24.2912  -26.7949 H   0  0  0  0  0  0  0  0  0  0  0  0
   -6.0997   22.8834  -27.2848 H   0  0  0  0  0  0  0  0  0  0  0  0
   -5.4526   22.9936  -25.6054 H   0  0  0  0  0  0  0  0  0  0  0  0
   -9.3742   21.6279  -24.8400 N   0  0  0  0  0  0  0  0  0  0  0  0
   -9.4145   20.6949  -23.8954 C   0  0  0  0  0  0  0  0  0  0  0  0
   -8.4935   20.5658  -22.8510 C   0  0  0  0  0  0  0  0  0  0  0  0
   -7.4185   21.4886  -22.8090 C   0  0  0  0  0  0  0  0  0  0  0  0
   -6.4850   21.3741  -21.7613 O   0  0  0  0  0  0  0  0  0  0  0  0
   -8.8473   19.5033  -22.0427 N   0  0  0  0  0  0  0  0  0  0  0  0
   -9.9514   19.0158  -22.5987 C   0  0  0  0  0  0  0  0  0  0  0  0
  -10.5132   18.1608  -22.2208 H   0  0  0  0  0  0  0  0  0  0  0  0
  -10.3343   19.7011  -23.7255 N   0  0  0  0  0  0  0  0  0  0  0  0
  -11.1318   19.5277  -24.3180 H   0  0  0  0  0  0  0  0  0  0  0  0
   -5.3710   22.2713  -21.8211 C   0  0  0  0  0  0  0  0  0  0  0  0
   -4.8951   22.4039  -20.8219 H   0  0  0  0  0  0  0  0  0  0  0  0
   -5.7064   23.2608  -22.2013 H   0  0  0  0  0  0  0  0  0  0  0  0
   -4.3110   21.6752  -22.7699 C   0  0  0  0  0  0  0  0  0  0  0  0
   -4.7461   21.6114  -23.7938 H   0  0  0  0  0  0  0  0  0  0  0  0
   -3.0541   22.5755  -22.8622 C   0  0  0  0  0  0  0  0  0  0  0  0
   -2.7139   22.8197  -21.8320 H   0  0  0  0  0  0  0  0  0  0  0  0
   -3.3210   23.5285  -23.3689 H   0  0  0  0  0  0  0  0  0  0  0  0
   -1.8947   21.9098  -23.6191 C   0  0  0  0  0  0  0  0  0  0  0  0
   -0.9968   22.5638  -23.5758 H   0  0  0  0  0  0  0  0  0  0  0  0
   -2.1810   21.7868  -24.6874 H   0  0  0  0  0  0  0  0  0  0  0  0
   -1.5614   20.5314  -23.0352 C   0  0  0  0  0  0  0  0  0  0  0  0
   -1.2435   20.6478  -21.9752 H   0  0  0  0  0  0  0  0  0  0  0  0
   -0.7238   20.0713  -23.6022 H   0  0  0  0  0  0  0  0  0  0  0  0
   -2.7945   19.6248  -23.0973 C   0  0  0  0  0  0  0  0  0  0  0  0
   -2.5498   18.6235  -22.6807 H   0  0  0  0  0  0  0  0  0  0  0  0
   -3.0961   19.4934  -24.1604 H   0  0  0  0  0  0  0  0  0  0  0  0
   -3.9600   20.2373  -22.3153 C   0  0  0  0  0  0  0  0  0  0  0  0
   -4.8550   19.5869  -22.4269 H   0  0  0  0  0  0  0  0  0  0  0  0
   -3.6895   20.2609  -21.2364 H   0  0  0  0  0  0  0  0  0  0  0  0
  1  2  2  0
  1 18  1  0
  2  3  1  0
  2 15  1  0
  3  4  1  0
  3  5  1  0
  5  6  1  0
  5 10  1  0
  5 11  1  0
  6  7  1  0
  6  8  1  0
  6  9  1  0
 11 12  1  0
 11 13  1  0
 11 14  1  0
 15 16  2  0
 16 17  1  0
 16 23  1  0
 17 18  2  0
 17 20  1  0
 18 19  1  0
 19 25  1  0
 20 21  2  0
 21 22  1  0
 21 23  1  0
 23 24  1  0
 25 26  1  0
 25 27  1  0
 25 28  1  0
 28 29  1  0
 28 30  1  0
 28 42  1  0
 30 31  1  0
 30 32  1  0
 30 33  1  0
 33 34  1  0
 33 35  1  0
 33 36  1  0
 36 37  1  0
 36 38  1  0
 36 39  1  0
 39 40  1  0
 39 41  1  0
 39 42  1  0
 42 43  1  0
 42 44  1  0
M  END
> <intraLJ>
15.020    

> <intraEL>
-11.013   

> <intraDihe>
13.885    

> <interLJ>
0.000     

> <interEJ>
0.000     

> <gridLJ>
-8.002    

> <gridEL>
0.000     

> <totalE>
9.890     

> <LGFE>
-8.002  

> <LE>
-0.381  

> <SMILES>
CC(C)Nc1nc(OCC2CCCCC2)c2nc[nH]c2n1

> <atom.dprop.GFE>
-0.2950 0.0992 -1.6080 0.0000 -0.2614 -0.1535 0.0000 0.0000 0.0000 0.0000 -0.2078 0.0000 0.0000 0.0000 -0.2200 -0.1255 -0.2261 -0.2457 -0.8030 -0.7770 -0.1958 0.0000 -0.8950 0.0000 -0.2754 0.0000 0.0000 -0.2807 0.0000 -0.1772 0.0000 0.0000 -0.0872 0.0000 0.0000 -0.3853 0.0000 0.0000 -0.4585 0.0000 0.0000 -0.4229 0.0000 0.0000

> <atom.prop.CLASS>
IMIN GEHC FORN NCLA PRPC PRPC NCLA NCLA NCLA NCLA PRPC NCLA NCLA NCLA IMIN GEHC GEHC BENC DMEO IMIN GEHC NCLA IMIH NCLA PRPC NCLA NCLA PRPC NCLA PRPC NCLA NCLA PRPC NCLA NCLA PRPC NCLA NCLA PRPC NCLA NCLA PRPC NCLA NCLA

> <cluster_id>
1

> <rmsd_to_cluster_rep>
0.00    

> <ligRMSD>
1.94    

> <ligCOMD>
1.13    

$$$$
cdk2_hardcastle_10_902
     RDKit          3D

 42 44  0  0  0  0  0  0  0  0999 V2000
   -7.1700   22.3321  -24.2276 N   0  0  0  0  0  0  0  0  0  0  0  0
   -8.3186   22.5750  -24.9346 C   0  0  0  0  0  0  0  0  0  0  0  0
   -8.3278   23.5818  -25.8601 N   0  0  0  0  0  0  0  0  0  0  0  0
   -9.1205   23.5692  -26.4980 H   0  0  0  0  0  0  0  0  0  0  0  0
   -7.0772   24.1751  -26.3912 C   0  0  0  0  0  0  0  0  0  0  0  0
   -6.5930   25.2616  -25.4228 C   0  0  0  0  0  0  0  0  0  0  0  0
   -7.3684   26.0458  -25.2838 H   0  0  0  0  0  0  0  0  0  0  0  0
   -5.4134   25.8786  -25.9187 O   0  0  0  0  0  0  0  0  0  0  0  0
   -5.6946   26.4887  -26.6053 H   0  0  0  0  0  0  0  0  0  0  0  0
   -6.3640   24.8083  -24.4331 H   0  0  0  0  0  0  0  0  0  0  0  0
   -7.2809   24.6230  -27.3901 H   0  0  0  0  0  0  0  0  0  0  0  0
   -6.2851   23.4028  -26.4996 H   0  0  0  0  0  0  0  0  0  0  0  0
   -9.4785   21.8716  -24.8036 N   0  0  0  0  0  0  0  0  0  0  0  0
   -9.4216   20.8833  -23.9137 C   0  0  0  0  0  0  0  0  0  0  0  0
   -8.3049   20.5692  -23.1302 C   0  0  0  0  0  0  0  0  0  0  0  0
   -7.1365   21.3519  -23.3149 C   0  0  0  0  0  0  0  0  0  0  0  0
   -6.0044   21.0582  -22.5343 O   0  0  0  0  0  0  0  0  0  0  0  0
   -8.5951   19.5005  -22.3052 N   0  0  0  0  0  0  0  0  0  0  0  0
   -9.8540   19.1890  -22.5946 C   0  0  0  0  0  0  0  0  0  0  0  0
  -10.4183   18.3813  -22.1267 H   0  0  0  0  0  0  0  0  0  0  0  0
  -10.3992   19.9950  -23.5646 N   0  0  0  0  0  0  0  0  0  0  0  0
  -11.3302   19.9596  -23.9507 H   0  0  0  0  0  0  0  0  0  0  0  0
   -4.8852   21.9344  -22.7094 C   0  0  0  0  0  0  0  0  0  0  0  0
   -5.1071   22.9651  -22.3472 H   0  0  0  0  0  0  0  0  0  0  0  0
   -4.6046   21.9757  -23.7846 H   0  0  0  0  0  0  0  0  0  0  0  0
   -3.7056   21.3907  -21.8792 C   0  0  0  0  0  0  0  0  0  0  0  0
   -4.0576   21.2089  -20.8376 H   0  0  0  0  0  0  0  0  0  0  0  0
   -3.1928   20.0378  -22.4315 C   0  0  0  0  0  0  0  0  0  0  0  0
   -3.0231   20.1405  -23.5257 H   0  0  0  0  0  0  0  0  0  0  0  0
   -3.9714   19.2591  -22.2779 H   0  0  0  0  0  0  0  0  0  0  0  0
   -1.8840   19.5793  -21.7709 C   0  0  0  0  0  0  0  0  0  0  0  0
   -1.5199   18.6540  -22.2677 H   0  0  0  0  0  0  0  0  0  0  0  0
   -2.0798   19.3428  -20.7013 H   0  0  0  0  0  0  0  0  0  0  0  0
   -0.8063   20.6678  -21.8469 C   0  0  0  0  0  0  0  0  0  0  0  0
   -0.5821   20.8901  -22.9139 H   0  0  0  0  0  0  0  0  0  0  0  0
    0.1274   20.3121  -21.3608 H   0  0  0  0  0  0  0  0  0  0  0  0
   -1.3012   21.9428  -21.1572 C   0  0  0  0  0  0  0  0  0  0  0  0
   -0.5159   22.7283  -21.2043 H   0  0  0  0  0  0  0  0  0  0  0  0
   -1.5058   21.7211  -20.0860 H   0  0  0  0  0  0  0  0  0  0  0  0
   -2.5831   22.4553  -21.8194 C   0  0  0  0  0  0  0  0  0  0  0  0
   -2.9490   23.3461  -21.2636 H   0  0  0  0  0  0  0  0  0  0  0  0
   -2.3418   22.7774  -22.8567 H   0  0  0  0  0  0  0  0  0  0  0  0
  1  2  2  0
  1 16  1  0
  2  3  1  0
  2 13  1  0
  3  4  1  0
  3  5  1  0
  5  6  1  0
  5 11  1  0
  5 12  1  0
  6  7  1  0
  6  8  1  0
  6 10  1  0
  8  9  1  0
 13 14  2  0
 14 15  1  0
 14 21  1  0
 15 16  2  0
 15 18  1  0
 16 17  1  0
 17 23  1  0
 18 19  2  0
 19 20  1  0
 19 21  1  0
 21 22  1  0
 23 24  1  0
 23 25  1  0
 23 26  1  0
 26 27  1  0
 26 28  1  0
 26 40  1  0
 28 29  1  0
 28 30  1  0
 28 31  1  0
 31 32  1  0
 31 33  1  0
 31 34  1  0
 34 35  1  0
 34 36  1  0
 34 37  1  0
 37 38  1  0
 37 39  1  0
 37 40  1  0
 40 41  1  0
 40 42  1  0
M  END
> <intraLJ>
14.385    

> <intraEL>
-8.454    

> <intraDihe>
17.241    

> <interLJ>
0.000     

> <interEJ>
0.000     

> <gridLJ>
-8.472    

> <gridEL>
0.000     

> <totalE>
14.700    

> <LGFE>
-8.472  

> <LE>
-0.403  

> <SMILES>
OCCNc1nc(OCC2CCCCC2)c2nc[nH]c2n1

> <atom.dprop.GFE>
-0.2950 -0.0513 -1.8210 0.0000 -0.2614 -0.1535 0.0000 -0.6340 0.0000 0.0000 0.0000 0.0000 -0.3070 -0.1255 -0.1195 -0.1359 -0.5900 -0.7770 -0.1958 0.0000 -0.8950 0.0000 -0.2754 0.0000 0.0000 -0.3630 0.0000 -0.5065 0.0000 0.0000 -0.4742 0.0000 0.0000 -0.3437 0.0000 0.0000 0.0440 0.0000 0.0000 -0.1915 0.0000 0.0000

> <atom.prop.CLASS>
IMIN GEHC FORN NCLA PRPC PRPC NCLA MEOO NCLA NCLA NCLA NCLA IMIN GEHC GEHC BENC DMEO IMIN GEHC NCLA IMIH NCLA PRPC NCLA NCLA PRPC NCLA PRPC NCLA NCLA PRPC NCLA NCLA PRPC NCLA NCLA PRPC NCLA NCLA PRPC NCLA NCLA

> <cluster_id>
1

> <rmsd_to_cluster_rep>
0.00    

> <ligRMSD>
1.63    

> <ligCOMD>
1.03    

$$$$
cdk2_hardcastle_15_1h1r_456
     RDKit          3D

 45 48  0  0  0  0  0  0  0  0999 V2000
   -3.8937   25.7691  -28.5612 Cl  0  0  0  0  0  0  0  0  0  0  0  0
   -7.2156   21.8288  -24.3312 N   0  0  0  0  0  0  0  0  0  0  0  0
   -8.1023   22.5756  -25.0474 C   0  0  0  0  0  0  0  0  0  0  0  0
   -7.6386   23.6506  -25.7709 N   0  0  0  0  0  0  0  0  0  0  0  0
   -8.3683   24.1915  -26.2280 H   0  0  0  0  0  0  0  0  0  0  0  0
   -9.4441   22.3375  -25.0727 N   0  0  0  0  0  0  0  0  0  0  0  0
   -9.8408   21.3361  -24.2790 C   0  0  0  0  0  0  0  0  0  0  0  0
   -8.9957   20.5460  -23.4858 C   0  0  0  0  0  0  0  0  0  0  0  0
   -7.6182   20.8420  -23.5250 C   0  0  0  0  0  0  0  0  0  0  0  0
   -6.7168   20.1395  -22.7001 O   0  0  0  0  0  0  0  0  0  0  0  0
   -9.7288   19.6034  -22.7990 N   0  0  0  0  0  0  0  0  0  0  0  0
  -10.9829   19.8289  -23.1723 C   0  0  0  0  0  0  0  0  0  0  0  0
  -11.8462   19.2628  -22.8208 H   0  0  0  0  0  0  0  0  0  0  0  0
  -11.1044   20.8695  -24.0633 N   0  0  0  0  0  0  0  0  0  0  0  0
  -11.9459   21.2297  -24.4864 H   0  0  0  0  0  0  0  0  0  0  0  0
   -5.3921   20.6794  -22.8301 C   0  0  0  0  0  0  0  0  0  0  0  0
   -5.3692   21.7818  -22.6404 H   0  0  0  0  0  0  0  0  0  0  0  0
   -5.0144   20.4804  -23.8595 H   0  0  0  0  0  0  0  0  0  0  0  0
   -4.4028   20.0912  -21.8206 C   0  0  0  0  0  0  0  0  0  0  0  0
   -4.4545   18.9802  -21.8586 H   0  0  0  0  0  0  0  0  0  0  0  0
   -4.7218   20.5631  -20.3845 C   0  0  0  0  0  0  0  0  0  0  0  0
   -5.7230   20.1853  -20.0839 H   0  0  0  0  0  0  0  0  0  0  0  0
   -4.7541   21.6749  -20.3653 H   0  0  0  0  0  0  0  0  0  0  0  0
   -3.6677   20.0831  -19.3794 C   0  0  0  0  0  0  0  0  0  0  0  0
   -3.7067   18.9721  -19.3257 H   0  0  0  0  0  0  0  0  0  0  0  0
   -3.9001   20.4857  -18.3698 H   0  0  0  0  0  0  0  0  0  0  0  0
   -2.2508   20.5077  -19.7939 C   0  0  0  0  0  0  0  0  0  0  0  0
   -1.5078   20.0875  -19.0823 H   0  0  0  0  0  0  0  0  0  0  0  0
   -2.1825   21.6177  -19.7515 H   0  0  0  0  0  0  0  0  0  0  0  0
   -1.9226   20.0460  -21.2207 C   0  0  0  0  0  0  0  0  0  0  0  0
   -1.8914   18.9335  -21.2389 H   0  0  0  0  0  0  0  0  0  0  0  0
   -0.9204   20.4243  -21.5178 H   0  0  0  0  0  0  0  0  0  0  0  0
   -2.9744   20.5231  -22.2245 C   0  0  0  0  0  0  0  0  0  0  0  0
   -2.9384   21.6336  -22.2863 H   0  0  0  0  0  0  0  0  0  0  0  0
   -2.7336   20.1163  -23.2308 H   0  0  0  0  0  0  0  0  0  0  0  0
   -6.3339   24.2071  -25.7687 C   0  0  0  0  0  0  0  0  0  0  0  0
   -5.7775   24.5931  -26.9947 C   0  0  0  0  0  0  0  0  0  0  0  0
   -6.3017   24.3837  -27.9150 H   0  0  0  0  0  0  0  0  0  0  0  0
   -4.5531   25.2710  -27.0331 C   0  0  0  0  0  0  0  0  0  0  0  0
   -3.8712   25.5645  -25.8456 C   0  0  0  0  0  0  0  0  0  0  0  0
   -2.9280   26.0890  -25.8814 H   0  0  0  0  0  0  0  0  0  0  0  0
   -4.4173   25.1860  -24.6142 C   0  0  0  0  0  0  0  0  0  0  0  0
   -3.8978   25.4207  -23.6966 H   0  0  0  0  0  0  0  0  0  0  0  0
   -5.6494   24.5234  -24.5742 C   0  0  0  0  0  0  0  0  0  0  0  0
   -6.0748   24.2703  -23.6145 H   0  0  0  0  0  0  0  0  0  0  0  0
  1 39  1  0
  2  3  2  0
  2  9  1  0
  3  4  1  0
  3  6  1  0
  4  5  1  0
  4 36  1  0
  6  7  2  0
  7  8  1  0
  7 14  1  0
  8  9  2  0
  8 11  1  0
  9 10  1  0
 10 16  1  0
 11 12  2  0
 12 13  1  0
 12 14  1  0
 14 15  1  0
 16 17  1  0
 16 18  1  0
 16 19  1  0
 19 20  1  0
 19 21  1  0
 19 33  1  0
 21 22  1  0
 21 23  1  0
 21 24  1  0
 24 25  1  0
 24 26  1  0
 24 27  1  0
 27 28  1  0
 27 29  1  0
 27 30  1  0
 30 31  1  0
 30 32  1  0
 30 33  1  0
 33 34  1  0
 33 35  1  0
 36 37  2  0
 36 44  1  0
 37 38  1  0
 37 39  1  0
 39 40  2  0
 40 41  1  0
 40 42  1  0
 42 43  1  0
 42 44  2  0
 44 45  1  0
M  END
> <intraLJ>
27.361    

> <intraEL>
-19.040   

> <intraDihe>
7.686     

> <interLJ>
0.000     

> <interEJ>
0.000     

> <gridLJ>
-7.727    

> <gridEL>
0.000     

> <totalE>
8.280     

> <LGFE>
-7.727  

> <LE>
-0.309  

> <SMILES>
Clc1cccc(Nc2nc(OCC3CCCCC3)c3nc[nH]c3n2)c1

> <atom.dprop.GFE>
-1.3110 -0.2950 -0.0513 -1.8210 0.0000 -0.3070 -0.1255 -0.2261 -0.2457 -0.4810 -1.0750 -0.1036 0.0000 -0.1170 0.0000 -0.4053 0.0000 0.0000 -0.4229 0.0000 -0.0829 0.0000 0.0000 0.2627 0.0000 0.0000 -0.1082 0.0000 0.0000 -0.3593 0.0000 0.0000 -0.5065 0.0000 0.0000 -0.0770 -0.0020 0.0000 0.0040 0.0159 0.0000 0.1323 0.0000 -0.0185 0.0000

> <atom.prop.CLASS>
CLBX IMIN GEHC FORN NCLA IMIN GEHC GEHC BENC DMEO IMIN GEHC NCLA IMIH NCLA PRPC NCLA NCLA PRPC NCLA PRPC NCLA NCLA PRPC NCLA NCLA PRPC NCLA NCLA PRPC NCLA NCLA PRPC NCLA NCLA BENC BENC NCLA BENC BENC NCLA BENC NCLA BENC NCLA

> <cluster_id>
1

> <rmsd_to_cluster_rep>
0.00    

> <ligRMSD>
1.11    

> <ligCOMD>
1.05    

$$$$
cdk2_hardcastle_17_331
     RDKit          3D

 45 48  0  0  0  0  0  0  0  0999 V2000
   -7.3669   21.7847  -23.7908 N   0  0  0  0  0  0  0  0  0  0  0  0
   -8.1971   22.5184  -24.6039 C   0  0  0  0  0  0  0  0  0  0  0  0
   -7.7540   23.6909  -25.1751 N   0  0  0  0  0  0  0  0  0  0  0  0
   -8.4368   24.1465  -25.7757 H   0  0  0  0  0  0  0  0  0  0  0  0
   -9.4816   22.1706  -24.8993 N   0  0  0  0  0  0  0  0  0  0  0  0
   -9.8996   21.0494  -24.3127 C   0  0  0  0  0  0  0  0  0  0  0  0
   -9.1314   20.2539  -23.4540 C   0  0  0  0  0  0  0  0  0  0  0  0
   -7.8018   20.6682  -23.1957 C   0  0  0  0  0  0  0  0  0  0  0  0
   -7.0102   19.8893  -22.3321 O   0  0  0  0  0  0  0  0  0  0  0  0
   -9.8731   19.1706  -23.0255 N   0  0  0  0  0  0  0  0  0  0  0  0
  -11.0536   19.3218  -23.6160 C   0  0  0  0  0  0  0  0  0  0  0  0
  -11.8976   18.6403  -23.5027 H   0  0  0  0  0  0  0  0  0  0  0  0
  -11.1208   20.4438  -24.4066 N   0  0  0  0  0  0  0  0  0  0  0  0
  -11.9022   20.7731  -24.9525 H   0  0  0  0  0  0  0  0  0  0  0  0
   -5.8744   20.5512  -21.7633 C   0  0  0  0  0  0  0  0  0  0  0  0
   -5.5958   20.1167  -20.7751 H   0  0  0  0  0  0  0  0  0  0  0  0
   -6.0935   21.6343  -21.6389 H   0  0  0  0  0  0  0  0  0  0  0  0
   -4.6748   20.3638  -22.7136 C   0  0  0  0  0  0  0  0  0  0  0  0
   -5.0146   20.5565  -23.7573 H   0  0  0  0  0  0  0  0  0  0  0  0
   -3.5394   21.3722  -22.4092 C   0  0  0  0  0  0  0  0  0  0  0  0
   -3.3182   21.3421  -21.3197 H   0  0  0  0  0  0  0  0  0  0  0  0
   -3.8831   22.3994  -22.6599 H   0  0  0  0  0  0  0  0  0  0  0  0
   -2.2472   21.0701  -23.1829 C   0  0  0  0  0  0  0  0  0  0  0  0
   -1.4459   21.7685  -22.8575 H   0  0  0  0  0  0  0  0  0  0  0  0
   -2.4269   21.2327  -24.2690 H   0  0  0  0  0  0  0  0  0  0  0  0
   -1.7914   19.6214  -22.9692 C   0  0  0  0  0  0  0  0  0  0  0  0
   -1.5807   19.4572  -21.8890 H   0  0  0  0  0  0  0  0  0  0  0  0
   -0.8578   19.4291  -23.5401 H   0  0  0  0  0  0  0  0  0  0  0  0
   -2.8899   18.6555  -23.4235 C   0  0  0  0  0  0  0  0  0  0  0  0
   -2.5552   17.6054  -23.2778 H   0  0  0  0  0  0  0  0  0  0  0  0
   -3.0845   18.8098  -24.5083 H   0  0  0  0  0  0  0  0  0  0  0  0
   -4.1830   18.8976  -22.6402 C   0  0  0  0  0  0  0  0  0  0  0  0
   -4.9764   18.2228  -23.0296 H   0  0  0  0  0  0  0  0  0  0  0  0
   -4.0060   18.6341  -21.5738 H   0  0  0  0  0  0  0  0  0  0  0  0
   -6.4804   24.2975  -25.0700 C   0  0  0  0  0  0  0  0  0  0  0  0
   -5.8527   24.5293  -23.8284 C   0  0  0  0  0  0  0  0  0  0  0  0
   -6.3309   24.2350  -22.9061 H   0  0  0  0  0  0  0  0  0  0  0  0
   -4.5964   25.1410  -23.7703 C   0  0  0  0  0  0  0  0  0  0  0  0
   -4.1153   25.3011  -22.8165 H   0  0  0  0  0  0  0  0  0  0  0  0
   -3.9722   25.5612  -24.9489 C   0  0  0  0  0  0  0  0  0  0  0  0
   -3.0068   26.0434  -24.9075 H   0  0  0  0  0  0  0  0  0  0  0  0
   -4.6039   25.3662  -26.1820 C   0  0  0  0  0  0  0  0  0  0  0  0
   -3.7566   25.9629  -27.7698 Br  0  0  0  0  0  0  0  0  0  0  0  0
   -5.8529   24.7355  -26.2453 C   0  0  0  0  0  0  0  0  0  0  0  0
   -6.3299   24.5850  -27.2020 H   0  0  0  0  0  0  0  0  0  0  0  0
  1  2  2  0
  1  8  1  0
  2  3  1  0
  2  5  1  0
  3  4  1  0
  3 35  1  0
  5  6  2  0
  6  7  1  0
  6 13  1  0
  7  8  2  0
  7 10  1  0
  8  9  1  0
  9 15  1  0
 10 11  2  0
 11 12  1  0
 11 13  1  0
 13 14  1  0
 15 16  1  0
 15 17  1  0
 15 18  1  0
 18 19  1  0
 18 20  1  0
 18 32  1  0
 20 21  1  0
 20 22  1  0
 20 23  1  0
 23 24  1  0
 23 25  1  0
 23 26  1  0
 26 27  1  0
 26 28  1  0
 26 29  1  0
 29 30  1  0
 29 31  1  0
 29 32  1  0
 32 33  1  0
 32 34  1  0
 35 36  2  0
 35 44  1  0
 36 37  1  0
 36 38  1  0
 38 39  1  0
 38 40  2  0
 40 41  1  0
 40 42  1  0
 42 43  1  0
 42 44  2  0
 44 45  1  0
M  END
> <intraLJ>
24.597    

> <intraEL>
-18.294   

> <intraDihe>
7.753     

> <interLJ>
0.000     

> <interEJ>
0.000     

> <gridLJ>
-8.155    

> <gridEL>
0.000     

> <totalE>
5.901     

> <LGFE>
-8.155  

> <LE>
-0.326  

> <SMILES>
Brc1cccc(Nc2nc(OCC3CCCCC3)c3nc[nH]c3n2)c1

> <atom.dprop.GFE>
-0.2950 0.0992 -1.5550 0.0000 -0.3070 -0.1255 -0.2261 -0.2457 -0.4810 -0.6360 -0.0559 0.0000 -0.1630 0.0000 -0.2478 0.0000 0.0000 -0.2704 0.0000 -0.3630 0.0000 0.0000 -0.3420 0.0000 0.0000 -0.3853 0.0000 0.0000 -0.2358 0.0000 0.0000 -0.1865 0.0000 0.0000 -0.0668 -0.0185 0.0000 0.1323 0.0000 0.0287 0.0000 0.0523 -2.2650 0.0040 0.0000

> <atom.prop.CLASS>
IMIN GEHC FORN NCLA IMIN GEHC GEHC BENC DMEO IMIN GEHC NCLA IMIH NCLA PRPC NCLA NCLA PRPC NCLA PRPC NCLA NCLA PRPC NCLA NCLA PRPC NCLA NCLA PRPC NCLA NCLA PRPC NCLA NCLA BENC BENC NCLA BENC NCLA BENC NCLA BENC BRBX BENC NCLA

> <cluster_id>
1

> <rmsd_to_cluster_rep>
0.00    

> <ligRMSD>
2.11    

> <ligCOMD>
1.36    

$$$$
cdk2_hardcastle_18_307
     RDKit          3D

 45 48  0  0  0  0  0  0  0  0999 V2000
   -7.3780   22.0885  -24.2963 N   0  0  0  0  0  0  0  0  0  0  0  0
   -8.4859   22.5672  -24.9528 C   0  0  0  0  0  0  0  0  0  0  0  0
   -8.3674   23.6043  -25.8516 N   0  0  0  0  0  0  0  0  0  0  0  0
   -9.2472   23.8960  -26.2705 H   0  0  0  0  0  0  0  0  0  0  0  0
   -9.7484   22.0845  -24.7756 N   0  0  0  0  0  0  0  0  0  0  0  0
   -9.8447   21.1028  -23.8792 C   0  0  0  0  0  0  0  0  0  0  0  0
   -8.7755   20.5704  -23.1488 C   0  0  0  0  0  0  0  0  0  0  0  0
   -7.4880   21.1113  -23.3894 C   0  0  0  0  0  0  0  0  0  0  0  0
   -6.3957   20.5985  -22.6664 O   0  0  0  0  0  0  0  0  0  0  0  0
   -9.2294   19.5718  -22.3091 N   0  0  0  0  0  0  0  0  0  0  0  0
  -10.5373   19.5150  -22.5368 C   0  0  0  0  0  0  0  0  0  0  0  0
  -11.2257   18.8293  -22.0413 H   0  0  0  0  0  0  0  0  0  0  0  0
  -10.9598   20.4212  -23.4794 N   0  0  0  0  0  0  0  0  0  0  0  0
  -11.8970   20.5715  -23.8203 H   0  0  0  0  0  0  0  0  0  0  0  0
   -5.1002   21.0007  -23.1266 C   0  0  0  0  0  0  0  0  0  0  0  0
   -4.9688   22.1068  -23.0765 H   0  0  0  0  0  0  0  0  0  0  0  0
   -4.9507   20.6609  -24.1748 H   0  0  0  0  0  0  0  0  0  0  0  0
   -4.0390   20.3598  -22.2103 C   0  0  0  0  0  0  0  0  0  0  0  0
   -4.2234   19.2617  -22.1662 H   0  0  0  0  0  0  0  0  0  0  0  0
   -2.6072   20.5610  -22.7647 C   0  0  0  0  0  0  0  0  0  0  0  0
   -2.4680   21.6367  -23.0106 H   0  0  0  0  0  0  0  0  0  0  0  0
   -2.4914   19.9779  -23.7043 H   0  0  0  0  0  0  0  0  0  0  0  0
   -1.5154   20.1375  -21.7707 C   0  0  0  0  0  0  0  0  0  0  0  0
   -0.5154   20.3884  -22.1863 H   0  0  0  0  0  0  0  0  0  0  0  0
   -1.5626   19.0351  -21.6260 H   0  0  0  0  0  0  0  0  0  0  0  0
   -1.6993   20.8227  -20.4111 C   0  0  0  0  0  0  0  0  0  0  0  0
   -1.6256   21.9253  -20.5414 H   0  0  0  0  0  0  0  0  0  0  0  0
   -0.8986   20.4996  -19.7117 H   0  0  0  0  0  0  0  0  0  0  0  0
   -3.0726   20.4718  -19.8309 C   0  0  0  0  0  0  0  0  0  0  0  0
   -3.2013   20.9592  -18.8401 H   0  0  0  0  0  0  0  0  0  0  0  0
   -3.1364   19.3703  -19.6863 H   0  0  0  0  0  0  0  0  0  0  0  0
   -4.1902   20.9220  -20.7756 C   0  0  0  0  0  0  0  0  0  0  0  0
   -5.1706   20.6056  -20.3570 H   0  0  0  0  0  0  0  0  0  0  0  0
   -4.1850   22.0334  -20.8263 H   0  0  0  0  0  0  0  0  0  0  0  0
   -7.1944   24.2532  -26.2980 C   0  0  0  0  0  0  0  0  0  0  0  0
   -6.3479   24.9514  -25.4177 C   0  0  0  0  0  0  0  0  0  0  0  0
   -6.5761   24.9877  -24.3632 H   0  0  0  0  0  0  0  0  0  0  0  0
   -5.1939   25.5774  -25.8912 C   0  0  0  0  0  0  0  0  0  0  0  0
   -4.1384   26.3864  -24.7747 Cl  0  0  0  0  0  0  0  0  0  0  0  0
   -4.8919   25.5487  -27.2563 C   0  0  0  0  0  0  0  0  0  0  0  0
   -4.0033   26.0390  -27.6245 H   0  0  0  0  0  0  0  0  0  0  0  0
   -5.7477   24.8863  -28.1440 C   0  0  0  0  0  0  0  0  0  0  0  0
   -5.3790   24.8671  -29.8405 Cl  0  0  0  0  0  0  0  0  0  0  0  0
   -6.8955   24.2386  -27.6679 C   0  0  0  0  0  0  0  0  0  0  0  0
   -7.5459   23.7234  -28.3584 H   0  0  0  0  0  0  0  0  0  0  0  0
  1  2  2  0
  1  8  1  0
  2  3  1  0
  2  5  1  0
  3  4  1  0
  3 35  1  0
  5  6  2  0
  6  7  1  0
  6 13  1  0
  7  8  2  0
  7 10  1  0
  8  9  1  0
  9 15  1  0
 10 11  2  0
 11 12  1  0
 11 13  1  0
 13 14  1  0
 15 16  1  0
 15 17  1  0
 15 18  1  0
 18 19  1  0
 18 20  1  0
 18 32  1  0
 20 21  1  0
 20 22  1  0
 20 23  1  0
 23 24  1  0
 23 25  1  0
 23 26  1  0
 26 27  1  0
 26 28  1  0
 26 29  1  0
 29 30  1  0
 29 31  1  0
 29 32  1  0
 32 33  1  0
 32 34  1  0
 35 36  2  0
 35 44  1  0
 36 37  1  0
 36 38  1  0
 38 39  1  0
 38 40  2  0
 40 41  1  0
 40 42  1  0
 42 43  1  0
 42 44  2  0
 44 45  1  0
M  END
> <intraLJ>
22.779    

> <intraEL>
-21.438   

> <intraDihe>
7.594     

> <interLJ>
0.000     

> <interEJ>
0.000     

> <gridLJ>
-9.571    

> <gridEL>
0.000     

> <totalE>
-0.636    

> <LGFE>
-9.571  

> <LE>
-0.368  

> <SMILES>
Clc1cc(Cl)cc(Nc2nc(OCC3CCCCC3)c3nc[nH]c3n2)c1

> <atom.dprop.GFE>
-0.2950 -0.0043 -1.8210 0.0000 -0.3070 -0.1255 -0.2261 -0.2457 -0.5900 -0.7770 -0.1655 0.0000 -0.0130 0.0000 -0.4053 0.0000 0.0000 -0.4229 0.0000 -0.5065 0.0000 0.0000 -0.4742 0.0000 0.0000 -0.0773 0.0000 0.0000 -0.0440 0.0000 0.0000 -0.1805 0.0000 0.0000 -0.0369 -0.0047 0.0000 0.0523 -2.2430 0.0040 0.0000 0.0628 -0.8030 0.0782 0.0000

> <atom.prop.CLASS>
IMIN GEHC FORN NCLA IMIN GEHC GEHC BENC DMEO IMIN GEHC NCLA IMIH NCLA PRPC NCLA NCLA PRPC NCLA PRPC NCLA NCLA PRPC NCLA NCLA PRPC NCLA NCLA PRPC NCLA NCLA PRPC NCLA NCLA BENC BENC NCLA BENC CLBX BENC NCLA BENC CLBX BENC NCLA

> <cluster_id>
1

> <rmsd_to_cluster_rep>
0.00    

> <ligRMSD>
1.09    

> <ligCOMD>
1.06    

$$$$
cdk2_hardcastle_20_770
     RDKit          3D

 49 52  0  0  0  0  0  0  0  0999 V2000
   -7.1996   22.2984  -24.1248 N   0  0  0  0  0  0  0  0  0  0  0  0
   -8.3007   22.5377  -24.9113 C   0  0  0  0  0  0  0  0  0  0  0  0
   -8.3106   23.5929  -25.7954 N   0  0  0  0  0  0  0  0  0  0  0  0
   -9.1785   23.6857  -26.3176 H   0  0  0  0  0  0  0  0  0  0  0  0
   -9.4404   21.7901  -24.8803 N   0  0  0  0  0  0  0  0  0  0  0  0
   -9.4290   20.8036  -23.9847 C   0  0  0  0  0  0  0  0  0  0  0  0
   -8.3641   20.5069  -23.1257 C   0  0  0  0  0  0  0  0  0  0  0  0
   -7.2044   21.3119  -23.2209 C   0  0  0  0  0  0  0  0  0  0  0  0
   -6.1238   21.0343  -22.3638 O   0  0  0  0  0  0  0  0  0  0  0  0
   -8.6866   19.4264  -22.3298 N   0  0  0  0  0  0  0  0  0  0  0  0
   -9.9149   19.0911  -22.7075 C   0  0  0  0  0  0  0  0  0  0  0  0
  -10.4922   18.2678  -22.2851 H   0  0  0  0  0  0  0  0  0  0  0  0
  -10.4097   19.8940  -23.7070 N   0  0  0  0  0  0  0  0  0  0  0  0
  -11.3102   19.8412  -24.1578 H   0  0  0  0  0  0  0  0  0  0  0  0
   -4.9440   21.8164  -22.5819 C   0  0  0  0  0  0  0  0  0  0  0  0
   -5.0616   22.8562  -22.1971 H   0  0  0  0  0  0  0  0  0  0  0  0
   -4.7128   21.8521  -23.6689 H   0  0  0  0  0  0  0  0  0  0  0  0
   -3.7741   21.1642  -21.8175 C   0  0  0  0  0  0  0  0  0  0  0  0
   -4.0849   21.0081  -20.7588 H   0  0  0  0  0  0  0  0  0  0  0  0
   -3.4132   19.7741  -22.3977 C   0  0  0  0  0  0  0  0  0  0  0  0
   -3.2894   19.8682  -23.4988 H   0  0  0  0  0  0  0  0  0  0  0  0
   -4.2502   19.0675  -22.2069 H   0  0  0  0  0  0  0  0  0  0  0  0
   -2.1197   19.1954  -21.8038 C   0  0  0  0  0  0  0  0  0  0  0  0
   -1.8662   18.2434  -22.3187 H   0  0  0  0  0  0  0  0  0  0  0  0
   -2.2830   18.9719  -20.7259 H   0  0  0  0  0  0  0  0  0  0  0  0
   -0.9524   20.1818  -21.9323 C   0  0  0  0  0  0  0  0  0  0  0  0
   -0.7603   20.3862  -23.0091 H   0  0  0  0  0  0  0  0  0  0  0  0
   -0.0326   19.7411  -21.4913 H   0  0  0  0  0  0  0  0  0  0  0  0
   -1.2953   21.4946  -21.2212 C   0  0  0  0  0  0  0  0  0  0  0  0
   -0.4460   22.2064  -21.3101 H   0  0  0  0  0  0  0  0  0  0  0  0
   -1.4635   21.2894  -20.1405 H   0  0  0  0  0  0  0  0  0  0  0  0
   -2.5586   22.1229  -21.8166 C   0  0  0  0  0  0  0  0  0  0  0  0
   -2.8137   23.0406  -21.2428 H   0  0  0  0  0  0  0  0  0  0  0  0
   -2.3434   22.4266  -22.8651 H   0  0  0  0  0  0  0  0  0  0  0  0
   -7.2880   24.5286  -26.0849 C   0  0  0  0  0  0  0  0  0  0  0  0
   -6.7466   25.3945  -25.1135 C   0  0  0  0  0  0  0  0  0  0  0  0
   -7.0908   25.3613  -24.0908 H   0  0  0  0  0  0  0  0  0  0  0  0
   -5.7511   26.3142  -25.4552 C   0  0  0  0  0  0  0  0  0  0  0  0
   -5.3315   26.9618  -24.6991 H   0  0  0  0  0  0  0  0  0  0  0  0
   -5.3099   26.4041  -26.7786 C   0  0  0  0  0  0  0  0  0  0  0  0
   -4.5424   27.1183  -27.0384 H   0  0  0  0  0  0  0  0  0  0  0  0
   -5.8634   25.5742  -27.7678 C   0  0  0  0  0  0  0  0  0  0  0  0
   -5.3926   25.6603  -29.1940 C   0  0  0  0  0  0  0  0  0  0  0  0
   -6.2715   25.5184  -29.8602 H   0  0  0  0  0  0  0  0  0  0  0  0
   -4.4168   24.6608  -29.4677 O   0  0  0  0  0  0  0  0  0  0  0  0
   -4.1506   24.7825  -30.3822 H   0  0  0  0  0  0  0  0  0  0  0  0
   -4.9493   26.6629  -29.3839 H   0  0  0  0  0  0  0  0  0  0  0  0
   -6.8582   24.6448  -27.4130 C   0  0  0  0  0  0  0  0  0  0  0  0
   -7.2758   24.0049  -28.1775 H   0  0  0  0  0  0  0  0  0  0  0  0
  1  2  2  0
  1  8  1  0
  2  3  1  0
  2  5  1  0
  3  4  1  0
  3 35  1  0
  5  6  2  0
  6  7  1  0
  6 13  1  0
  7  8  2  0
  7 10  1  0
  8  9  1  0
  9 15  1  0
 10 11  2  0
 11 12  1  0
 11 13  1  0
 13 14  1  0
 15 16  1  0
 15 17  1  0
 15 18  1  0
 18 19  1  0
 18 20  1  0
 18 32  1  0
 20 21  1  0
 20 22  1  0
 20 23  1  0
 23 24  1  0
 23 25  1  0
 23 26  1  0
 26 27  1  0
 26 28  1  0
 26 29  1  0
 29 30  1  0
 29 31  1  0
 29 32  1  0
 32 33  1  0
 32 34  1  0
 35 36  2  0
 35 48  1  0
 36 37  1  0
 36 38  1  0
 38 39  1  0
 38 40  2  0
 40 41  1  0
 40 42  1  0
 42 43  1  0
 42 48  2  0
 43 44  1  0
 43 45  1  0
 43 47  1  0
 45 46  1  0
 48 49  1  0
M  END
> <intraLJ>
24.643    

> <intraEL>
-16.069   

> <intraDihe>
10.168    

> <interLJ>
0.000     

> <interEJ>
0.000     

> <gridLJ>
-6.489    

> <gridEL>
0.000     

> <totalE>
12.253    

> <LGFE>
-6.489  

> <LE>
-0.250  

> <SMILES>
OCc1cccc(Nc2nc(OCC3CCCCC3)c3nc[nH]c3n2)c1

> <atom.dprop.GFE>
-0.2950 -0.0513 -1.8210 0.0000 -0.3070 -0.1255 -0.1195 -0.1359 -0.5900 -0.7770 -0.1958 0.0000 -0.8950 0.0000 -0.2754 0.0000 0.0000 -0.3630 0.0000 -0.5065 0.0000 0.0000 -0.3453 0.0000 0.0000 -0.3730 0.0000 0.0000 -0.2218 0.0000 0.0000 -0.1915 0.0000 0.0000 -0.0369 0.1136 0.0000 0.5058 0.0000 0.2138 0.0000 -0.0020 0.2984 0.0000 -0.0830 0.0000 0.0000 0.0908 0.0000

> <atom.prop.CLASS>
IMIN GEHC FORN NCLA IMIN GEHC GEHC BENC DMEO IMIN GEHC NCLA IMIH NCLA PRPC NCLA NCLA PRPC NCLA PRPC NCLA NCLA PRPC NCLA NCLA PRPC NCLA NCLA PRPC NCLA NCLA PRPC NCLA NCLA BENC BENC NCLA BENC NCLA BENC NCLA BENC PRPC NCLA MEOO NCLA NCLA BENC NCLA

> <cluster_id>
1

> <rmsd_to_cluster_rep>
0.00    

> <ligRMSD>
1.52    

> <ligCOMD>
1.09    

$$$$
cdk2_hardcastle_21_922
     RDKit          3D

 49 52  0  0  0  0  0  0  0  0999 V2000
   -7.3215   22.3036  -23.7844 N   0  0  0  0  0  0  0  0  0  0  0  0
   -8.2410   22.3435  -24.8054 C   0  0  0  0  0  0  0  0  0  0  0  0
   -8.1272   23.2746  -25.8159 N   0  0  0  0  0  0  0  0  0  0  0  0
   -8.8383   23.1859  -26.5378 H   0  0  0  0  0  0  0  0  0  0  0  0
   -9.3118   21.5048  -24.9022 N   0  0  0  0  0  0  0  0  0  0  0  0
   -9.4287   20.6382  -23.8966 C   0  0  0  0  0  0  0  0  0  0  0  0
   -8.5562   20.5470  -22.8057 C   0  0  0  0  0  0  0  0  0  0  0  0
   -7.4574   21.4385  -22.7721 C   0  0  0  0  0  0  0  0  0  0  0  0
   -6.5704   21.3678  -21.6820 O   0  0  0  0  0  0  0  0  0  0  0  0
   -8.9717   19.5449  -21.9517 N   0  0  0  0  0  0  0  0  0  0  0  0
  -10.0659   19.0545  -22.5230 C   0  0  0  0  0  0  0  0  0  0  0  0
  -10.6660   18.2384  -22.1187 H   0  0  0  0  0  0  0  0  0  0  0  0
  -10.3851   19.6819  -23.7032 N   0  0  0  0  0  0  0  0  0  0  0  0
  -11.1625   19.4924  -24.3170 H   0  0  0  0  0  0  0  0  0  0  0  0
   -5.4055   22.1954  -21.7764 C   0  0  0  0  0  0  0  0  0  0  0  0
   -4.9542   22.3876  -20.7753 H   0  0  0  0  0  0  0  0  0  0  0  0
   -5.6712   23.1653  -22.2508 H   0  0  0  0  0  0  0  0  0  0  0  0
   -4.3519   21.4636  -22.6325 C   0  0  0  0  0  0  0  0  0  0  0  0
   -4.7997   21.2336  -23.6267 H   0  0  0  0  0  0  0  0  0  0  0  0
   -3.1047   22.3464  -22.8861 C   0  0  0  0  0  0  0  0  0  0  0  0
   -2.7524   22.7541  -21.9133 H   0  0  0  0  0  0  0  0  0  0  0  0
   -3.3874   23.2046  -23.5341 H   0  0  0  0  0  0  0  0  0  0  0  0
   -1.9502   21.5762  -23.5450 C   0  0  0  0  0  0  0  0  0  0  0  0
   -1.0578   22.2346  -23.6206 H   0  0  0  0  0  0  0  0  0  0  0  0
   -2.2507   21.2823  -24.5754 H   0  0  0  0  0  0  0  0  0  0  0  0
   -1.5961   20.3108  -22.7541 C   0  0  0  0  0  0  0  0  0  0  0  0
   -1.2636   20.5970  -21.7315 H   0  0  0  0  0  0  0  0  0  0  0  0
   -0.7629   19.7715  -23.2537 H   0  0  0  0  0  0  0  0  0  0  0  0
   -2.8218   19.3978  -22.6509 C   0  0  0  0  0  0  0  0  0  0  0  0
   -2.5621   18.4778  -22.0834 H   0  0  0  0  0  0  0  0  0  0  0  0
   -3.1374   19.0959  -23.6745 H   0  0  0  0  0  0  0  0  0  0  0  0
   -3.9815   20.1198  -21.9590 C   0  0  0  0  0  0  0  0  0  0  0  0
   -4.8720   19.4538  -21.9513 H   0  0  0  0  0  0  0  0  0  0  0  0
   -3.6961   20.3176  -20.9020 H   0  0  0  0  0  0  0  0  0  0  0  0
   -7.1612   24.2971  -25.9942 C   0  0  0  0  0  0  0  0  0  0  0  0
   -7.2645   25.5387  -25.3366 C   0  0  0  0  0  0  0  0  0  0  0  0
   -8.0807   25.7410  -24.6592 H   0  0  0  0  0  0  0  0  0  0  0  0
   -6.3124   26.5357  -25.5481 C   0  0  0  0  0  0  0  0  0  0  0  0
   -6.3903   27.4793  -25.0271 H   0  0  0  0  0  0  0  0  0  0  0  0
   -5.2709   26.3172  -26.4500 C   0  0  0  0  0  0  0  0  0  0  0  0
   -4.5421   27.0972  -26.6196 H   0  0  0  0  0  0  0  0  0  0  0  0
   -5.1617   25.1095  -27.1501 C   0  0  0  0  0  0  0  0  0  0  0  0
   -4.0909   24.9857  -28.0613 O   0  0  0  0  0  0  0  0  0  0  0  0
   -3.9655   23.7726  -28.7936 C   0  0  0  0  0  0  0  0  0  0  0  0
   -3.0795   23.8511  -29.4598 H   0  0  0  0  0  0  0  0  0  0  0  0
   -4.8636   23.5988  -29.4255 H   0  0  0  0  0  0  0  0  0  0  0  0
   -3.8110   22.9120  -28.1070 H   0  0  0  0  0  0  0  0  0  0  0  0
   -6.1158   24.0903  -26.9161 C   0  0  0  0  0  0  0  0  0  0  0  0
   -6.0650   23.1434  -27.4303 H   0  0  0  0  0  0  0  0  0  0  0  0
  1  2  2  0
  1  8  1  0
  2  3  1  0
  2  5  1  0
  3  4  1  0
  3 35  1  0
  5  6  2  0
  6  7  1  0
  6 13  1  0
  7  8  2  0
  7 10  1  0
  8  9  1  0
  9 15  1  0
 10 11  2  0
 11 12  1  0
 11 13  1  0
 13 14  1  0
 15 16  1  0
 15 17  1  0
 15 18  1  0
 18 19  1  0
 18 20  1  0
 18 32  1  0
 20 21  1  0
 20 22  1  0
 20 23  1  0
 23 24  1  0
 23 25  1  0
 23 26  1  0
 26 27  1  0
 26 28  1  0
 26 29  1  0
 29 30  1  0
 29 31  1  0
 29 32  1  0
 32 33  1  0
 32 34  1  0
 35 36  2  0
 35 48  1  0
 36 37  1  0
 36 38  1  0
 38 39  1  0
 38 40  2  0
 40 41  1  0
 40 42  1  0
 42 43  1  0
 42 48  2  0
 43 44  1  0
 44 45  1  0
 44 46  1  0
 44 47  1  0
 48 49  1  0
M  END
> <intraLJ>
26.202    

> <intraEL>
-18.747   

> <intraDihe>
7.581     

> <interLJ>
0.000     

> <interEJ>
0.000     

> <gridLJ>
-6.083    

> <gridEL>
0.000     

> <totalE>
8.954     

> <LGFE>
-6.083  

> <LE>
-0.234  

> <SMILES>
COc1cccc(Nc2nc(OCC3CCCCC3)c3nc[nH]c3n2)c1

> <atom.dprop.GFE>
-0.2950 -0.0513 -1.6010 0.0000 0.2760 -0.1255 -0.2261 -0.2457 -0.8030 -0.7770 -0.1958 0.0000 -0.8950 0.0000 -0.2754 0.0000 0.0000 -0.3630 0.0000 -0.1772 0.0000 0.0000 -0.3420 0.0000 0.0000 -0.4742 0.0000 0.0000 -0.3939 0.0000 0.0000 -0.4229 0.0000 0.0000 -0.0369 0.1136 0.0000 0.5058 0.0000 0.3542 0.0000 0.0040 0.2500 0.0260 0.0000 0.0000 0.0000 0.0882 0.0000

> <atom.prop.CLASS>
IMIN GEHC FORN NCLA IMIN GEHC GEHC BENC DMEO IMIN GEHC NCLA IMIH NCLA PRPC NCLA NCLA PRPC NCLA PRPC NCLA NCLA PRPC NCLA NCLA PRPC NCLA NCLA PRPC NCLA NCLA PRPC NCLA NCLA BENC BENC NCLA BENC NCLA BENC NCLA BENC DMEO PRPC NCLA NCLA NCLA BENC NCLA

> <cluster_id>
1

> <rmsd_to_cluster_rep>
0.00    

> <ligRMSD>
1.92    

> <ligCOMD>
1.19    

$$$$
cdk2_hardcastle_22_634
     RDKit          3D

 49 52  0  0  0  0  0  0  0  0999 V2000
   -7.4068   21.9742  -23.8763 N   0  0  0  0  0  0  0  0  0  0  0  0
   -8.1610   22.5606  -24.8643 C   0  0  0  0  0  0  0  0  0  0  0  0
   -7.6579   23.6154  -25.5905 N   0  0  0  0  0  0  0  0  0  0  0  0
   -8.2941   23.9736  -26.2986 H   0  0  0  0  0  0  0  0  0  0  0  0
   -9.4269   22.1765  -25.1925 N   0  0  0  0  0  0  0  0  0  0  0  0
   -9.9145   21.1892  -24.4429 C   0  0  0  0  0  0  0  0  0  0  0  0
   -9.2290   20.5546  -23.4001 C   0  0  0  0  0  0  0  0  0  0  0  0
   -7.9117   20.9898  -23.1238 C   0  0  0  0  0  0  0  0  0  0  0  0
   -7.2072   20.3677  -22.0769 O   0  0  0  0  0  0  0  0  0  0  0  0
  -10.0253   19.5787  -22.8367 N   0  0  0  0  0  0  0  0  0  0  0  0
  -11.1575   19.6343  -23.5287 C   0  0  0  0  0  0  0  0  0  0  0  0
  -12.0243   18.9958  -23.3544 H   0  0  0  0  0  0  0  0  0  0  0  0
  -11.1414   20.5931  -24.5129 N   0  0  0  0  0  0  0  0  0  0  0  0
  -11.8746   20.8264  -25.1650 H   0  0  0  0  0  0  0  0  0  0  0  0
   -6.1293   21.1284  -21.5198 C   0  0  0  0  0  0  0  0  0  0  0  0
   -5.9121   20.8270  -20.4686 H   0  0  0  0  0  0  0  0  0  0  0  0
   -6.3814   22.2111  -21.5457 H   0  0  0  0  0  0  0  0  0  0  0  0
   -4.8587   20.8655  -22.3533 C   0  0  0  0  0  0  0  0  0  0  0  0
   -5.1637   20.6093  -23.3940 H   0  0  0  0  0  0  0  0  0  0  0  0
   -3.9566   22.1219  -22.4373 C   0  0  0  0  0  0  0  0  0  0  0  0
   -3.7960   22.5153  -21.4097 H   0  0  0  0  0  0  0  0  0  0  0  0
   -4.4757   22.9084  -23.0273 H   0  0  0  0  0  0  0  0  0  0  0  0
   -2.5884   21.8344  -23.0747 C   0  0  0  0  0  0  0  0  0  0  0  0
   -1.9562   22.7475  -23.0286 H   0  0  0  0  0  0  0  0  0  0  0  0
   -2.7350   21.5698  -24.1456 H   0  0  0  0  0  0  0  0  0  0  0  0
   -1.8744   20.6729  -22.3723 C   0  0  0  0  0  0  0  0  0  0  0  0
   -1.6931   20.9422  -21.3080 H   0  0  0  0  0  0  0  0  0  0  0  0
   -0.8924   20.4826  -22.8562 H   0  0  0  0  0  0  0  0  0  0  0  0
   -2.7405   19.4107  -22.4344 C   0  0  0  0  0  0  0  0  0  0  0  0
   -2.2195   18.5688  -21.9288 H   0  0  0  0  0  0  0  0  0  0  0  0
   -2.8984   19.1305  -23.4998 H   0  0  0  0  0  0  0  0  0  0  0  0
   -4.0998   19.6486  -21.7703 C   0  0  0  0  0  0  0  0  0  0  0  0
   -4.7248   18.7359  -21.8839 H   0  0  0  0  0  0  0  0  0  0  0  0
   -3.9387   19.8169  -20.6824 H   0  0  0  0  0  0  0  0  0  0  0  0
   -6.3987   24.2509  -25.4780 C   0  0  0  0  0  0  0  0  0  0  0  0
   -5.9943   24.9046  -24.2986 C   0  0  0  0  0  0  0  0  0  0  0  0
   -6.6322   24.9169  -23.4271 H   0  0  0  0  0  0  0  0  0  0  0  0
   -4.7580   25.5478  -24.2365 C   0  0  0  0  0  0  0  0  0  0  0  0
   -4.4466   26.0355  -23.3238 H   0  0  0  0  0  0  0  0  0  0  0  0
   -3.9331   25.5762  -25.3646 C   0  0  0  0  0  0  0  0  0  0  0  0
   -2.9837   26.0896  -25.2994 H   0  0  0  0  0  0  0  0  0  0  0  0
   -4.3296   24.9594  -26.5666 C   0  0  0  0  0  0  0  0  0  0  0  0
   -3.1851   25.1127  -27.9083 S   0  0  0  0  0  0  0  0  0  0  0  0
   -4.2069   24.5823  -29.3217 C   0  0  0  0  0  0  0  0  0  0  0  0
   -3.6103   24.6099  -30.2593 H   0  0  0  0  0  0  0  0  0  0  0  0
   -5.0822   25.2515  -29.4658 H   0  0  0  0  0  0  0  0  0  0  0  0
   -4.5731   23.5411  -29.1924 H   0  0  0  0  0  0  0  0  0  0  0  0
   -5.5711   24.2943  -26.6120 C   0  0  0  0  0  0  0  0  0  0  0  0
   -5.9157   23.8070  -27.5097 H   0  0  0  0  0  0  0  0  0  0  0  0
  1  2  2  0
  1  8  1  0
  2  3  1  0
  2  5  1  0
  3  4  1  0
  3 35  1  0
  5  6  2  0
  6  7  1  0
  6 13  1  0
  7  8  2  0
  7 10  1  0
  8  9  1  0
  9 15  1  0
 10 11  2  0
 11 12  1  0
 11 13  1  0
 13 14  1  0
 15 16  1  0
 15 17  1  0
 15 18  1  0
 18 19  1  0
 18 20  1  0
 18 32  1  0
 20 21  1  0
 20 22  1  0
 20 23  1  0
 23 24  1  0
 23 25  1  0
 23 26  1  0
 26 27  1  0
 26 28  1  0
 26 29  1  0
 29 30  1  0
 29 31  1  0
 29 32  1  0
 32 33  1  0
 32 34  1  0
 35 36  2  0
 35 48  1  0
 36 37  1  0
 36 38  1  0
 38 39  1  0
 38 40  2  0
 40 41  1  0
 40 42  1  0
 42 43  1  0
 42 48  2  0
 43 44  1  0
 44 45  1  0
 44 46  1  0
 44 47  1  0
 48 49  1  0
M  END
> <intraLJ>
25.099    

> <intraEL>
-18.285   

> <intraDihe>
9.653     

> <interLJ>
0.000     

> <interEJ>
0.000     

> <gridLJ>
-6.468    

> <gridEL>
0.000     

> <totalE>
9.998     

> <LGFE>
-6.468  

> <LE>
-0.249  

> <SMILES>
CSc1cccc(Nc2nc(OCC3CCCCC3)c3nc[nH]c3n2)c1

> <atom.dprop.GFE>
-0.2950 -0.0513 -1.5550 0.0000 -0.3070 -0.1255 -0.2261 -0.2457 -0.4810 -1.0750 -0.1036 0.0000 -0.1170 0.0000 -0.2980 0.0000 0.0000 -0.3553 0.0000 -0.2807 0.0000 0.0000 -0.1772 0.0000 0.0000 -0.3906 0.0000 0.0000 -0.3939 0.0000 0.0000 -0.4229 0.0000 0.0000 -0.0770 0.2609 0.0000 0.1323 0.0000 0.0287 0.0000 0.0159 0.0493 -0.0100 0.0000 0.0000 0.0000 0.0324 0.0000

> <atom.prop.CLASS>
IMIN GEHC FORN NCLA IMIN GEHC GEHC BENC DMEO IMIN GEHC NCLA IMIH NCLA PRPC NCLA NCLA PRPC NCLA PRPC NCLA NCLA PRPC NCLA NCLA PRPC NCLA NCLA PRPC NCLA NCLA PRPC NCLA NCLA BENC BENC NCLA BENC NCLA BENC NCLA BENC PRPC PRPC NCLA NCLA NCLA BENC NCLA

> <cluster_id>
1

> <rmsd_to_cluster_rep>
0.00    

> <ligRMSD>
1.87    

> <ligCOMD>
1.07    

$$$$
cdk2_hardcastle_25_1oi9_140
     RDKit          3D

 46 49  0  0  0  0  0  0  0  0999 V2000
   -7.1907   21.5740  -23.2178 N   0  0  0  0  0  0  0  0  0  0  0  0
   -8.2160   21.4505  -24.1225 C   0  0  0  0  0  0  0  0  0  0  0  0
   -8.2609   22.3057  -25.2019 N   0  0  0  0  0  0  0  0  0  0  0  0
   -9.0931   22.2291  -25.7814 H   0  0  0  0  0  0  0  0  0  0  0  0
   -9.2264   20.5416  -24.0078 N   0  0  0  0  0  0  0  0  0  0  0  0
   -9.1866   19.8252  -22.8807 C   0  0  0  0  0  0  0  0  0  0  0  0
   -8.2121   19.9470  -21.8786 C   0  0  0  0  0  0  0  0  0  0  0  0
   -7.1813   20.8858  -22.0784 C   0  0  0  0  0  0  0  0  0  0  0  0
   -6.1990   21.0401  -21.0838 O   0  0  0  0  0  0  0  0  0  0  0  0
   -8.4675   19.0617  -20.8569 N   0  0  0  0  0  0  0  0  0  0  0  0
   -9.5691   18.4284  -21.2376 C   0  0  0  0  0  0  0  0  0  0  0  0
  -10.0639   17.6454  -20.6619 H   0  0  0  0  0  0  0  0  0  0  0  0
  -10.0450   18.8531  -22.4555 N   0  0  0  0  0  0  0  0  0  0  0  0
  -10.8593   18.5258  -22.9522 H   0  0  0  0  0  0  0  0  0  0  0  0
   -5.3159   22.1545  -21.2679 C   0  0  0  0  0  0  0  0  0  0  0  0
   -4.8614   22.4842  -20.3045 H   0  0  0  0  0  0  0  0  0  0  0  0
   -5.8738   23.0042  -21.7189 H   0  0  0  0  0  0  0  0  0  0  0  0
   -4.1636   21.7315  -22.2020 C   0  0  0  0  0  0  0  0  0  0  0  0
   -4.5829   21.0900  -23.0109 H   0  0  0  0  0  0  0  0  0  0  0  0
   -3.4935   22.9499  -22.8852 C   0  0  0  0  0  0  0  0  0  0  0  0
   -3.2204   23.6927  -22.1040 H   0  0  0  0  0  0  0  0  0  0  0  0
   -4.2204   23.4306  -23.5755 H   0  0  0  0  0  0  0  0  0  0  0  0
   -2.2279   22.5698  -23.6704 C   0  0  0  0  0  0  0  0  0  0  0  0
   -1.7467   23.4883  -24.0708 H   0  0  0  0  0  0  0  0  0  0  0  0
   -2.5161   21.9275  -24.5323 H   0  0  0  0  0  0  0  0  0  0  0  0
   -1.2303   21.8012  -22.7943 C   0  0  0  0  0  0  0  0  0  0  0  0
   -0.9032   22.4526  -21.9536 H   0  0  0  0  0  0  0  0  0  0  0  0
   -0.3343   21.5262  -23.3912 H   0  0  0  0  0  0  0  0  0  0  0  0
   -1.8880   20.5383  -22.2278 C   0  0  0  0  0  0  0  0  0  0  0  0
   -1.1636   19.9896  -21.5875 H   0  0  0  0  0  0  0  0  0  0  0  0
   -2.1784   19.8722  -23.0707 H   0  0  0  0  0  0  0  0  0  0  0  0
   -3.1369   20.8858  -21.4113 C   0  0  0  0  0  0  0  0  0  0  0  0
   -3.6206   19.9449  -21.0689 H   0  0  0  0  0  0  0  0  0  0  0  0
   -2.8247   21.4559  -20.5084 H   0  0  0  0  0  0  0  0  0  0  0  0
   -7.3416   23.3470  -25.4935 C   0  0  0  0  0  0  0  0  0  0  0  0
   -7.3490   24.5662  -24.7780 C   0  0  0  0  0  0  0  0  0  0  0  0
   -8.0733   24.7490  -23.9982 H   0  0  0  0  0  0  0  0  0  0  0  0
   -6.4126   25.5619  -25.0527 C   0  0  0  0  0  0  0  0  0  0  0  0
   -6.4180   26.4778  -24.4784 H   0  0  0  0  0  0  0  0  0  0  0  0
   -5.5004   25.3838  -26.0951 C   0  0  0  0  0  0  0  0  0  0  0  0
   -5.5128   24.2010  -26.8497 C   0  0  0  0  0  0  0  0  0  0  0  0
   -4.8149   24.0649  -27.6629 H   0  0  0  0  0  0  0  0  0  0  0  0
   -6.4249   23.1806  -26.5423 C   0  0  0  0  0  0  0  0  0  0  0  0
   -6.4152   22.2672  -27.1195 H   0  0  0  0  0  0  0  0  0  0  0  0
   -4.5908   26.4168  -26.3944 O   0  0  0  0  0  0  0  0  0  0  0  0
   -4.0618   26.1368  -27.1444 H   0  0  0  0  0  0  0  0  0  0  0  0
  1  2  2  0
  1  8  1  0
  2  3  1  0
  2  5  1  0
  3  4  1  0
  3 35  1  0
  5  6  2  0
  6  7  1  0
  6 13  1  0
  7  8  2  0
  7 10  1  0
  8  9  1  0
  9 15  1  0
 10 11  2  0
 11 12  1  0
 11 13  1  0
 13 14  1  0
 15 16  1  0
 15 17  1  0
 15 18  1  0
 18 19  1  0
 18 20  1  0
 18 32  1  0
 20 21  1  0
 20 22  1  0
 20 23  1  0
 23 24  1  0
 23 25  1  0
 23 26  1  0
 26 27  1  0
 26 28  1  0
 26 29  1  0
 29 30  1  0
 29 31  1  0
 29 32  1  0
 32 33  1  0
 32 34  1  0
 35 36  2  0
 35 43  1  0
 36 37  1  0
 36 38  1  0
 38 39  1  0
 38 40  2  0
 40 41  1  0
 40 45  1  0
 41 42  1  0
 41 43  2  0
 43 44  1  0
 45 46  1  0
M  END
> <intraLJ>
25.782    

> <intraEL>
-17.398   

> <intraDihe>
8.194     

> <interLJ>
0.000     

> <interEJ>
0.000     

> <gridLJ>
-6.986    

> <gridEL>
0.000     

> <totalE>
9.591     

> <LGFE>
-6.986  

> <LE>
-0.279  

> <SMILES>
Oc1ccc(Nc2nc(OCC3CCCCC3)c3nc[nH]c3n2)cc1

> <atom.dprop.GFE>
0.0910 -0.0410 -1.4250 0.0000 -0.5190 -0.2261 -0.0999 -0.0631 -0.9630 -0.5730 -0.1542 0.0000 -0.9870 0.0000 -0.1106 0.0000 0.0000 -0.2807 0.0000 -0.1772 0.0000 0.0000 -0.0872 0.0000 0.0000 -0.0653 0.0000 0.0000 -0.4742 0.0000 0.0000 -0.2108 0.0000 0.0000 -0.0401 -0.0668 0.0000 -0.0047 0.0000 0.0040 0.0882 0.0000 0.0332 0.0000 -0.6340 0.0000

> <atom.prop.CLASS>
IMIN GEHC FORN NCLA IMIN GEHC GEHC BENC DMEO IMIN GEHC NCLA IMIH NCLA PRPC NCLA NCLA PRPC NCLA PRPC NCLA NCLA PRPC NCLA NCLA PRPC NCLA NCLA PRPC NCLA NCLA PRPC NCLA NCLA BENC BENC NCLA BENC NCLA BENC BENC NCLA BENC NCLA MEOO NCLA

> <cluster_id>
1

> <rmsd_to_cluster_rep>
0.00    

> <ligRMSD>
2.17    

> <ligCOMD>
0.97    

$$$$
cdk2_hardcastle_26_997
     RDKit          3D

 49 52  0  0  0  0  0  0  0  0999 V2000
   -7.3181   21.4866  -22.9815 N   0  0  0  0  0  0  0  0  0  0  0  0
   -8.2814   21.3308  -23.9501 C   0  0  0  0  0  0  0  0  0  0  0  0
   -8.3185   22.1680  -25.0444 N   0  0  0  0  0  0  0  0  0  0  0  0
   -9.1008   21.9945  -25.6708 H   0  0  0  0  0  0  0  0  0  0  0  0
   -9.2575   20.3800  -23.9115 N   0  0  0  0  0  0  0  0  0  0  0  0
   -9.2405   19.6142  -22.8214 C   0  0  0  0  0  0  0  0  0  0  0  0
   -8.3167   19.7213  -21.7752 C   0  0  0  0  0  0  0  0  0  0  0  0
   -7.3168   20.7168  -21.8863 C   0  0  0  0  0  0  0  0  0  0  0  0
   -6.3803   20.8441  -20.8437 O   0  0  0  0  0  0  0  0  0  0  0  0
   -8.5878   18.7746  -20.8077 N   0  0  0  0  0  0  0  0  0  0  0  0
   -9.6489   18.1227  -21.2695 C   0  0  0  0  0  0  0  0  0  0  0  0
  -10.1424   17.2962  -20.7568 H   0  0  0  0  0  0  0  0  0  0  0  0
  -10.0831   18.5928  -22.4855 N   0  0  0  0  0  0  0  0  0  0  0  0
  -10.8626   18.2658  -23.0355 H   0  0  0  0  0  0  0  0  0  0  0  0
   -5.5417   22.0035  -20.9027 C   0  0  0  0  0  0  0  0  0  0  0  0
   -5.0909   22.2370  -19.9102 H   0  0  0  0  0  0  0  0  0  0  0  0
   -6.1338   22.8778  -21.2511 H   0  0  0  0  0  0  0  0  0  0  0  0
   -4.3877   21.7252  -21.8873 C   0  0  0  0  0  0  0  0  0  0  0  0
   -4.6937   20.8979  -22.5683 H   0  0  0  0  0  0  0  0  0  0  0  0
   -4.0802   22.9573  -22.7741 C   0  0  0  0  0  0  0  0  0  0  0  0
   -3.9642   23.8484  -22.1189 H   0  0  0  0  0  0  0  0  0  0  0  0
   -4.9388   23.1434  -23.4554 H   0  0  0  0  0  0  0  0  0  0  0  0
   -2.8014   22.7896  -23.6090 C   0  0  0  0  0  0  0  0  0  0  0  0
   -2.5856   23.7338  -24.1544 H   0  0  0  0  0  0  0  0  0  0  0  0
   -2.9614   21.9852  -24.3612 H   0  0  0  0  0  0  0  0  0  0  0  0
   -1.6026   22.4123  -22.7300 C   0  0  0  0  0  0  0  0  0  0  0  0
   -1.4146   23.2262  -21.9949 H   0  0  0  0  0  0  0  0  0  0  0  0
   -0.6939   22.2927  -23.3582 H   0  0  0  0  0  0  0  0  0  0  0  0
   -1.8934   21.1092  -21.9789 C   0  0  0  0  0  0  0  0  0  0  0  0
   -1.0212   20.8334  -21.3472 H   0  0  0  0  0  0  0  0  0  0  0  0
   -2.0581   20.2930  -22.7173 H   0  0  0  0  0  0  0  0  0  0  0  0
   -3.1402   21.2531  -21.1015 C   0  0  0  0  0  0  0  0  0  0  0  0
   -3.3582   20.2766  -20.6161 H   0  0  0  0  0  0  0  0  0  0  0  0
   -2.9249   21.9915  -20.2976 H   0  0  0  0  0  0  0  0  0  0  0  0
   -7.4511   23.2346  -25.3857 C   0  0  0  0  0  0  0  0  0  0  0  0
   -7.6529   24.5385  -24.8971 C   0  0  0  0  0  0  0  0  0  0  0  0
   -8.4669   24.7583  -24.2221 H   0  0  0  0  0  0  0  0  0  0  0  0
   -6.8041   25.5768  -25.2767 C   0  0  0  0  0  0  0  0  0  0  0  0
   -6.9650   26.5689  -24.8784 H   0  0  0  0  0  0  0  0  0  0  0  0
   -5.7614   25.3586  -26.1813 C   0  0  0  0  0  0  0  0  0  0  0  0
   -5.5717   24.0593  -26.7088 C   0  0  0  0  0  0  0  0  0  0  0  0
   -4.7888   23.8376  -27.4164 H   0  0  0  0  0  0  0  0  0  0  0  0
   -6.4151   23.0082  -26.3078 C   0  0  0  0  0  0  0  0  0  0  0  0
   -6.2583   22.0200  -26.7161 H   0  0  0  0  0  0  0  0  0  0  0  0
   -4.9613   26.4677  -26.5217 O   0  0  0  0  0  0  0  0  0  0  0  0
   -3.8759   26.2589  -27.4160 C   0  0  0  0  0  0  0  0  0  0  0  0
   -3.3580   27.2289  -27.5764 H   0  0  0  0  0  0  0  0  0  0  0  0
   -4.2410   25.8908  -28.3996 H   0  0  0  0  0  0  0  0  0  0  0  0
   -3.1449   25.5391  -26.9876 H   0  0  0  0  0  0  0  0  0  0  0  0
  1  2  2  0
  1  8  1  0
  2  3  1  0
  2  5  1  0
  3  4  1  0
  3 35  1  0
  5  6  2  0
  6  7  1  0
  6 13  1  0
  7  8  2  0
  7 10  1  0
  8  9  1  0
  9 15  1  0
 10 11  2  0
 11 12  1  0
 11 13  1  0
 13 14  1  0
 15 16  1  0
 15 17  1  0
 15 18  1  0
 18 19  1  0
 18 20  1  0
 18 32  1  0
 20 21  1  0
 20 22  1  0
 20 23  1  0
 23 24  1  0
 23 25  1  0
 23 26  1  0
 26 27  1  0
 26 28  1  0
 26 29  1  0
 29 30  1  0
 29 31  1  0
 29 32  1  0
 32 33  1  0
 32 34  1  0
 35 36  2  0
 35 43  1  0
 36 37  1  0
 36 38  1  0
 38 39  1  0
 38 40  2  0
 40 41  1  0
 40 45  1  0
 41 42  1  0
 41 43  2  0
 43 44  1  0
 45 46  1  0
 46 47  1  0
 46 48  1  0
 46 49  1  0
M  END
> <intraLJ>
25.454    

> <intraEL>
-16.022   

> <intraDihe>
8.127     

> <interLJ>
0.000     

> <interEJ>
0.000     

> <gridLJ>
-6.018    

> <gridEL>
0.000     

> <totalE>
11.541    

> <LGFE>
-6.018  

> <LE>
-0.231  

> <SMILES>
COc1ccc(Nc2nc(OCC3CCCCC3)c3nc[nH]c3n2)cc1

> <atom.dprop.GFE>
0.0910 -0.0410 -1.4250 0.0000 -0.5190 -0.2261 -0.0999 -0.0631 -0.9630 -0.5730 -0.1542 0.0000 -0.9870 0.0000 0.0260 0.0000 0.0000 -0.2807 0.0000 -0.1772 0.0000 0.0000 -0.0160 0.0000 0.0000 -0.1192 0.0000 0.0000 -0.3906 0.0000 0.0000 -0.2108 0.0000 0.0000 -0.0750 0.0549 0.0000 0.1136 0.0000 0.0040 0.0324 0.0000 0.0332 0.0000 -0.1870 0.1349 0.0000 0.0000 0.0000

> <atom.prop.CLASS>
IMIN GEHC FORN NCLA IMIN GEHC GEHC BENC DMEO IMIN GEHC NCLA IMIH NCLA PRPC NCLA NCLA PRPC NCLA PRPC NCLA NCLA PRPC NCLA NCLA PRPC NCLA NCLA PRPC NCLA NCLA PRPC NCLA NCLA BENC BENC NCLA BENC NCLA BENC BENC NCLA BENC NCLA DMEO PRPC NCLA NCLA NCLA

> <cluster_id>
1

> <rmsd_to_cluster_rep>
0.00    

> <ligRMSD>
2.26    

> <ligCOMD>
0.83    

$$$$
cdk2_hardcastle_28_524
     RDKit          3D

 53 56  0  0  0  0  0  0  0  0999 V2000
   -7.2435   21.9474  -24.3116 N   0  0  0  0  0  0  0  0  0  0  0  0
   -8.3061   22.5398  -24.9513 C   0  0  0  0  0  0  0  0  0  0  0  0
   -8.1037   23.6027  -25.8067 N   0  0  0  0  0  0  0  0  0  0  0  0
   -8.9633   23.9873  -26.1915 H   0  0  0  0  0  0  0  0  0  0  0  0
   -9.6044   22.1499  -24.7965 N   0  0  0  0  0  0  0  0  0  0  0  0
   -9.7824   21.1454  -23.9383 C   0  0  0  0  0  0  0  0  0  0  0  0
   -8.7624   20.5040  -23.2260 C   0  0  0  0  0  0  0  0  0  0  0  0
   -7.4367   20.9491  -23.4405 C   0  0  0  0  0  0  0  0  0  0  0  0
   -6.3977   20.3202  -22.7295 O   0  0  0  0  0  0  0  0  0  0  0  0
   -9.2954   19.5121  -22.4275 N   0  0  0  0  0  0  0  0  0  0  0  0
  -10.6019   19.5650  -22.6604 C   0  0  0  0  0  0  0  0  0  0  0  0
  -11.3433   18.9153  -22.1938 H   0  0  0  0  0  0  0  0  0  0  0  0
  -10.9485   20.5368  -23.5682 N   0  0  0  0  0  0  0  0  0  0  0  0
  -11.8695   20.7710  -23.9058 H   0  0  0  0  0  0  0  0  0  0  0  0
   -5.0802   20.8164  -22.9917 C   0  0  0  0  0  0  0  0  0  0  0  0
   -5.0174   21.9190  -22.8393 H   0  0  0  0  0  0  0  0  0  0  0  0
   -4.7891   20.5739  -24.0371 H   0  0  0  0  0  0  0  0  0  0  0  0
   -4.0981   20.1513  -22.0059 C   0  0  0  0  0  0  0  0  0  0  0  0
   -4.2244   19.0461  -22.0704 H   0  0  0  0  0  0  0  0  0  0  0  0
   -2.6242   20.4650  -22.3645 C   0  0  0  0  0  0  0  0  0  0  0  0
   -2.5157   21.5635  -22.4994 H   0  0  0  0  0  0  0  0  0  0  0  0
   -2.3683   19.9751  -23.3292 H   0  0  0  0  0  0  0  0  0  0  0  0
   -1.6339   20.0007  -21.2853 C   0  0  0  0  0  0  0  0  0  0  0  0
   -0.6068   20.3290  -21.5555 H   0  0  0  0  0  0  0  0  0  0  0  0
   -1.6403   18.8888  -21.2406 H   0  0  0  0  0  0  0  0  0  0  0  0
   -2.0087   20.5526  -19.9043 C   0  0  0  0  0  0  0  0  0  0  0  0
   -1.9724   21.6645  -19.9302 H   0  0  0  0  0  0  0  0  0  0  0  0
   -1.2811   20.1975  -19.1433 H   0  0  0  0  0  0  0  0  0  0  0  0
   -3.4228   20.1012  -19.5256 C   0  0  0  0  0  0  0  0  0  0  0  0
   -3.6909   20.4979  -18.5223 H   0  0  0  0  0  0  0  0  0  0  0  0
   -3.4484   18.9897  -19.4767 H   0  0  0  0  0  0  0  0  0  0  0  0
   -4.4444   20.5828  -20.5600 C   0  0  0  0  0  0  0  0  0  0  0  0
   -5.4490   20.1904  -20.2891 H   0  0  0  0  0  0  0  0  0  0  0  0
   -4.4917   21.6937  -20.5212 H   0  0  0  0  0  0  0  0  0  0  0  0
   -6.8883   24.1846  -26.2531 C   0  0  0  0  0  0  0  0  0  0  0  0
   -6.0134   24.8747  -25.3914 C   0  0  0  0  0  0  0  0  0  0  0  0
   -6.2408   24.9727  -24.3402 H   0  0  0  0  0  0  0  0  0  0  0  0
   -4.8308   25.4446  -25.8764 C   0  0  0  0  0  0  0  0  0  0  0  0
   -4.1731   25.9526  -25.1855 H   0  0  0  0  0  0  0  0  0  0  0  0
   -4.5057   25.3782  -27.2451 C   0  0  0  0  0  0  0  0  0  0  0  0
   -5.4027   24.7175  -28.1120 C   0  0  0  0  0  0  0  0  0  0  0  0
   -5.1902   24.6557  -29.1693 H   0  0  0  0  0  0  0  0  0  0  0  0
   -6.5784   24.1286  -27.6216 C   0  0  0  0  0  0  0  0  0  0  0  0
   -7.2434   23.6261  -28.3098 H   0  0  0  0  0  0  0  0  0  0  0  0
   -3.0190   26.1445  -27.8532 S   0  0  0  0  0  0  0  0  0  0  0  0
   -3.5203   27.7052  -28.0710 N   0  0  0  0  0  0  0  0  0  0  0  0
   -2.5820   28.5423  -28.8411 C   0  0  0  0  0  0  0  0  0  0  0  0
   -2.4066   28.1160  -29.8532 H   0  0  0  0  0  0  0  0  0  0  0  0
   -1.6035   28.6251  -28.3189 H   0  0  0  0  0  0  0  0  0  0  0  0
   -2.9948   29.5671  -28.9681 H   0  0  0  0  0  0  0  0  0  0  0  0
   -3.7773   28.1515  -27.1898 H   0  0  0  0  0  0  0  0  0  0  0  0
   -2.0692   26.0728  -26.7732 O   0  0  0  0  0  0  0  0  0  0  0  0
   -2.7521   25.5146  -29.1213 O   0  0  0  0  0  0  0  0  0  0  0  0
  1  2  2  0
  1  8  1  0
  2  3  1  0
  2  5  1  0
  3  4  1  0
  3 35  1  0
  5  6  2  0
  6  7  1  0
  6 13  1  0
  7  8  2  0
  7 10  1  0
  8  9  1  0
  9 15  1  0
 10 11  2  0
 11 12  1  0
 11 13  1  0
 13 14  1  0
 15 16  1  0
 15 17  1  0
 15 18  1  0
 18 19  1  0
 18 20  1  0
 18 32  1  0
 20 21  1  0
 20 22  1  0
 20 23  1  0
 23 24  1  0
 23 25  1  0
 23 26  1  0
 26 27  1  0
 26 28  1  0
 26 29  1  0
 29 30  1  0
 29 31  1  0
 29 32  1  0
 32 33  1  0
 32 34  1  0
 35 36  2  0
 35 43  1  0
 36 37  1  0
 36 38  1  0
 38 39  1  0
 38 40  2  0
 40 41  1  0
 40 45  1  0
 41 42  1  0
 41 43  2  0
 43 44  1  0
 45 46  1  0
 45 52  2  0
 45 53  2  0
 46 47  1  0
 46 51  1  0
 47 48  1  0
 47 49  1  0
 47 50  1  0
M  END
> <intraLJ>
23.512    

> <intraEL>
-15.136   

> <intraDihe>
11.724    

> <interLJ>
0.000     

> <interEJ>
0.000     

> <gridLJ>
-6.383    

> <gridEL>
0.000     

> <totalE>
13.717    

> <LGFE>
-6.383  

> <LE>
-0.220  

> <SMILES>
CNS(=O)(=O)c1ccc(Nc2nc(OCC3CCCCC3)c3nc[nH]c3n2)cc1

> <atom.dprop.GFE>
-0.2950 -0.0513 -1.8210 0.0000 -0.3070 -0.1255 -0.2261 -0.2457 -0.5900 -0.7770 -0.1655 0.0000 -0.0130 0.0000 -0.4053 0.0000 0.0000 -0.4229 0.0000 -0.5065 0.0000 0.0000 -0.3593 0.0000 0.0000 -0.1082 0.0000 0.0000 0.2627 0.0000 0.0000 -0.1372 0.0000 0.0000 -0.0369 -0.0047 0.0000 0.0523 0.0000 0.0040 -0.0180 0.0000 0.0782 0.0000 0.0000 0.1200 -0.0886 0.0000 0.0000 0.0000 0.0000 0.0320 -0.2270

> <atom.prop.CLASS>
IMIN GEHC FORN NCLA IMIN GEHC GEHC BENC DMEO IMIN GEHC NCLA IMIH NCLA PRPC NCLA NCLA PRPC NCLA PRPC NCLA NCLA PRPC NCLA NCLA PRPC NCLA NCLA PRPC NCLA NCLA PRPC NCLA NCLA BENC BENC NCLA BENC NCLA BENC BENC NCLA BENC NCLA NCLA FORN PRPC NCLA NCLA NCLA NCLA FORO FORO

> <cluster_id>
1

> <rmsd_to_cluster_rep>
0.00    

> <ligRMSD>
1.55    

> <ligCOMD>
0.85    

$$$$
cdk2_hardcastle_29_894
     RDKit          3D

 56 59  0  0  0  0  0  0  0  0999 V2000
   -6.8087   22.0819  -24.2642 N   0  0  0  0  0  0  0  0  0  0  0  0
   -7.9041   22.5623  -24.9409 C   0  0  0  0  0  0  0  0  0  0  0  0
   -7.7755   23.6068  -25.8323 N   0  0  0  0  0  0  0  0  0  0  0  0
   -8.6573   23.8981  -26.2473 H   0  0  0  0  0  0  0  0  0  0  0  0
   -9.1691   22.0737  -24.7909 N   0  0  0  0  0  0  0  0  0  0  0  0
   -9.2809   21.0908  -23.8974 C   0  0  0  0  0  0  0  0  0  0  0  0
   -8.2256   20.5618  -23.1455 C   0  0  0  0  0  0  0  0  0  0  0  0
   -6.9364   21.1047  -23.3576 C   0  0  0  0  0  0  0  0  0  0  0  0
   -5.8632   20.5894  -22.6070 O   0  0  0  0  0  0  0  0  0  0  0  0
   -8.6913   19.5606  -22.3169 N   0  0  0  0  0  0  0  0  0  0  0  0
   -9.9933   19.4984  -22.5711 C   0  0  0  0  0  0  0  0  0  0  0  0
  -10.6883   18.8087  -22.0906 H   0  0  0  0  0  0  0  0  0  0  0  0
  -10.4007   20.4038  -23.5213 N   0  0  0  0  0  0  0  0  0  0  0  0
  -11.3313   20.5496  -23.8816 H   0  0  0  0  0  0  0  0  0  0  0  0
   -4.6054   21.2481  -22.7937 C   0  0  0  0  0  0  0  0  0  0  0  0
   -4.6870   22.3472  -22.6258 H   0  0  0  0  0  0  0  0  0  0  0  0
   -4.2337   21.0617  -23.8249 H   0  0  0  0  0  0  0  0  0  0  0  0
   -3.6003   20.6911  -21.7650 C   0  0  0  0  0  0  0  0  0  0  0  0
   -3.5686   19.5817  -21.8643 H   0  0  0  0  0  0  0  0  0  0  0  0
   -2.1654   21.2146  -22.0230 C   0  0  0  0  0  0  0  0  0  0  0  0
   -2.2021   22.3214  -22.1240 H   0  0  0  0  0  0  0  0  0  0  0  0
   -1.7883   20.7961  -22.9816 H   0  0  0  0  0  0  0  0  0  0  0  0
   -1.1853   20.8546  -20.8958 C   0  0  0  0  0  0  0  0  0  0  0  0
   -0.1994   21.3286  -21.0932 H   0  0  0  0  0  0  0  0  0  0  0  0
   -1.0406   19.7513  -20.8788 H   0  0  0  0  0  0  0  0  0  0  0  0
   -1.7129   21.3045  -19.5278 C   0  0  0  0  0  0  0  0  0  0  0  0
   -1.8291   22.4112  -19.5242 H   0  0  0  0  0  0  0  0  0  0  0  0
   -0.9890   21.0272  -18.7318 H   0  0  0  0  0  0  0  0  0  0  0  0
   -3.0707   20.6522  -19.2493 C   0  0  0  0  0  0  0  0  0  0  0  0
   -3.4493   20.9754  -18.2553 H   0  0  0  0  0  0  0  0  0  0  0  0
   -2.9453   19.5466  -19.2293 H   0  0  0  0  0  0  0  0  0  0  0  0
   -4.0868   21.0236  -20.3334 C   0  0  0  0  0  0  0  0  0  0  0  0
   -5.0416   20.4891  -20.1355 H   0  0  0  0  0  0  0  0  0  0  0  0
   -4.2894   22.1158  -20.2704 H   0  0  0  0  0  0  0  0  0  0  0  0
   -6.6095   24.2817  -26.2804 C   0  0  0  0  0  0  0  0  0  0  0  0
   -5.6799   24.8724  -25.4019 C   0  0  0  0  0  0  0  0  0  0  0  0
   -5.8200   24.8167  -24.3328 H   0  0  0  0  0  0  0  0  0  0  0  0
   -4.5535   25.5416  -25.8942 C   0  0  0  0  0  0  0  0  0  0  0  0
   -3.8484   25.9662  -25.1938 H   0  0  0  0  0  0  0  0  0  0  0  0
   -4.3446   25.6782  -27.2798 C   0  0  0  0  0  0  0  0  0  0  0  0
   -5.2982   25.1190  -28.1572 C   0  0  0  0  0  0  0  0  0  0  0  0
   -5.1723   25.2096  -29.2262 H   0  0  0  0  0  0  0  0  0  0  0  0
   -6.4143   24.4279  -27.6631 C   0  0  0  0  0  0  0  0  0  0  0  0
   -7.1235   24.0052  -28.3608 H   0  0  0  0  0  0  0  0  0  0  0  0
   -2.9121   26.5412  -27.8893 S   0  0  0  0  0  0  0  0  0  0  0  0
   -2.3182   25.5368  -29.0695 N   0  0  0  0  0  0  0  0  0  0  0  0
   -1.8388   24.2610  -28.5544 C   0  0  0  0  0  0  0  0  0  0  0  0
   -2.6178   23.7396  -27.9550 H   0  0  0  0  0  0  0  0  0  0  0  0
   -0.9391   24.3994  -27.9132 H   0  0  0  0  0  0  0  0  0  0  0  0
   -1.5574   23.5820  -29.3911 H   0  0  0  0  0  0  0  0  0  0  0  0
   -1.4138   26.1428  -30.0365 C   0  0  0  0  0  0  0  0  0  0  0  0
   -1.1134   25.3986  -30.8090 H   0  0  0  0  0  0  0  0  0  0  0  0
   -0.4857   26.5113  -29.5443 H   0  0  0  0  0  0  0  0  0  0  0  0
   -1.8888   26.9940  -30.5706 H   0  0  0  0  0  0  0  0  0  0  0  0
   -3.4034   27.7611  -28.4781 O   0  0  0  0  0  0  0  0  0  0  0  0
   -1.9952   26.5729  -26.7774 O   0  0  0  0  0  0  0  0  0  0  0  0
  1  2  2  0
  1  8  1  0
  2  3  1  0
  2  5  1  0
  3  4  1  0
  3 35  1  0
  5  6  2  0
  6  7  1  0
  6 13  1  0
  7  8  2  0
  7 10  1  0
  8  9  1  0
  9 15  1  0
 10 11  2  0
 11 12  1  0
 11 13  1  0
 13 14  1  0
 15 16  1  0
 15 17  1  0
 15 18  1  0
 18 19  1  0
 18 20  1  0
 18 32  1  0
 20 21  1  0
 20 22  1  0
 20 23  1  0
 23 24  1  0
 23 25  1  0
 23 26  1  0
 26 27  1  0
 26 28  1  0
 26 29  1  0
 29 30  1  0
 29 31  1  0
 29 32  1  0
 32 33  1  0
 32 34  1  0
 35 36  2  0
 35 43  1  0
 36 37  1  0
 36 38  1  0
 38 39  1  0
 38 40  2  0
 40 41  1  0
 40 45  1  0
 41 42  1  0
 41 43  2  0
 43 44  1  0
 45 46  1  0
 45 55  2  0
 45 56  2  0
 46 47  1  0
 46 51  1  0
 47 48  1  0
 47 49  1  0
 47 50  1  0
 51 52  1  0
 51 53  1  0
 51 54  1  0
M  END
> <intraLJ>
24.053    

> <intraEL>
-14.255   

> <intraDihe>
13.822    

> <interLJ>
0.000     

> <interEJ>
0.000     

> <gridLJ>
-5.549    

> <gridEL>
0.000     

> <totalE>
18.072    

> <LGFE>
-5.549  

> <LE>
-0.185  

> <SMILES>
CN(C)S(=O)(=O)c1ccc(Nc2nc(OCC3CCCCC3)c3nc[nH]c3n2)cc1

> <atom.dprop.GFE>
-0.2950 -0.0513 -1.8210 0.0000 -0.2200 -0.0986 -0.1195 -0.1359 -0.5900 -0.7770 -0.1958 0.0000 -0.8950 0.0000 -0.4053 0.0000 0.0000 -0.1805 0.0000 -0.3906 0.0000 0.0000 -0.2218 0.0000 0.0000 0.0759 0.0000 0.0000 0.1775 0.0000 0.0000 0.0386 0.0000 0.0000 -0.0369 -0.0047 0.0000 0.0523 0.0000 0.1207 -0.0180 0.0000 0.0782 0.0000 0.0000 0.1500 0.0440 0.0000 0.0000 0.0000 0.1828 0.0000 0.0000 0.0000 -0.0440 0.0320

> <atom.prop.CLASS>
IMIN GEHC FORN NCLA IMIN GEHC GEHC BENC DMEO IMIN GEHC NCLA IMIH NCLA PRPC NCLA NCLA PRPC NCLA PRPC NCLA NCLA PRPC NCLA NCLA PRPC NCLA NCLA PRPC NCLA NCLA PRPC NCLA NCLA BENC BENC NCLA BENC NCLA BENC BENC NCLA BENC NCLA NCLA GENA PRPC NCLA NCLA NCLA PRPC NCLA NCLA NCLA FORO FORO

> <cluster_id>
1

> <rmsd_to_cluster_rep>
0.00    

> <ligRMSD>
1.25    

> <ligCOMD>
0.96    

$$$$
cdk2_hardcastle_30_719
     RDKit          3D

 51 54  0  0  0  0  0  0  0  0999 V2000
   -7.3953   21.9219  -24.1351 N   0  0  0  0  0  0  0  0  0  0  0  0
   -8.1607   22.4175  -25.1635 C   0  0  0  0  0  0  0  0  0  0  0  0
   -7.6656   23.4021  -25.9922 N   0  0  0  0  0  0  0  0  0  0  0  0
   -8.2934   23.6538  -26.7520 H   0  0  0  0  0  0  0  0  0  0  0  0
   -9.4305   22.0029  -25.4399 N   0  0  0  0  0  0  0  0  0  0  0  0
   -9.9047   21.0773  -24.6062 C   0  0  0  0  0  0  0  0  0  0  0  0
   -9.2053   20.5357  -23.5216 C   0  0  0  0  0  0  0  0  0  0  0  0
   -7.8873   21.0011  -23.2968 C   0  0  0  0  0  0  0  0  0  0  0  0
   -7.1674   20.4735  -22.2089 O   0  0  0  0  0  0  0  0  0  0  0  0
   -9.9908   19.6048  -22.8709 N   0  0  0  0  0  0  0  0  0  0  0  0
  -11.1301   19.5963  -23.5540 C   0  0  0  0  0  0  0  0  0  0  0  0
  -11.9914   18.9697  -23.3189 H   0  0  0  0  0  0  0  0  0  0  0  0
  -11.1288   20.4700  -24.6146 N   0  0  0  0  0  0  0  0  0  0  0  0
  -11.8695   20.6443  -25.2766 H   0  0  0  0  0  0  0  0  0  0  0  0
   -6.0459   21.2500  -21.7726 C   0  0  0  0  0  0  0  0  0  0  0  0
   -5.8104   21.0665  -20.6985 H   0  0  0  0  0  0  0  0  0  0  0  0
   -6.2569   22.3315  -21.9221 H   0  0  0  0  0  0  0  0  0  0  0  0
   -4.8119   20.8367  -22.6000 C   0  0  0  0  0  0  0  0  0  0  0  0
   -5.1493   20.5530  -23.6235 H   0  0  0  0  0  0  0  0  0  0  0  0
   -3.8087   22.0063  -22.7571 C   0  0  0  0  0  0  0  0  0  0  0  0
   -3.6068   22.4404  -21.7534 H   0  0  0  0  0  0  0  0  0  0  0  0
   -4.2655   22.8002  -23.3875 H   0  0  0  0  0  0  0  0  0  0  0  0
   -2.4750   21.5709  -23.3831 C   0  0  0  0  0  0  0  0  0  0  0  0
   -1.7680   22.4286  -23.3887 H   0  0  0  0  0  0  0  0  0  0  0  0
   -2.6519   21.2624  -24.4376 H   0  0  0  0  0  0  0  0  0  0  0  0
   -1.8557   20.3927  -22.6212 C   0  0  0  0  0  0  0  0  0  0  0  0
   -1.6460   20.7016  -21.5730 H   0  0  0  0  0  0  0  0  0  0  0  0
   -0.8960   20.0959  -23.0962 H   0  0  0  0  0  0  0  0  0  0  0  0
   -2.8244   19.2062  -22.6151 C   0  0  0  0  0  0  0  0  0  0  0  0
   -2.3715   18.3502  -22.0691 H   0  0  0  0  0  0  0  0  0  0  0  0
   -3.0144   18.8864  -23.6640 H   0  0  0  0  0  0  0  0  0  0  0  0
   -4.1527   19.5918  -21.9580 C   0  0  0  0  0  0  0  0  0  0  0  0
   -4.8532   18.7304  -22.0205 H   0  0  0  0  0  0  0  0  0  0  0  0
   -3.9677   19.8019  -20.8812 H   0  0  0  0  0  0  0  0  0  0  0  0
   -6.4165   24.0728  -25.9462 C   0  0  0  0  0  0  0  0  0  0  0  0
   -6.0440   24.9004  -24.8692 C   0  0  0  0  0  0  0  0  0  0  0  0
   -6.7036   25.0339  -24.0245 H   0  0  0  0  0  0  0  0  0  0  0  0
   -4.8124   25.5636  -24.8691 C   0  0  0  0  0  0  0  0  0  0  0  0
   -4.5492   26.1774  -24.0196 H   0  0  0  0  0  0  0  0  0  0  0  0
   -3.9381   25.4550  -25.9661 C   0  0  0  0  0  0  0  0  0  0  0  0
   -4.3226   24.6460  -27.0548 C   0  0  0  0  0  0  0  0  0  0  0  0
   -3.6719   24.5429  -27.9109 H   0  0  0  0  0  0  0  0  0  0  0  0
   -5.5497   23.9653  -27.0458 C   0  0  0  0  0  0  0  0  0  0  0  0
   -5.8201   23.3528  -27.8942 H   0  0  0  0  0  0  0  0  0  0  0  0
   -2.3811   26.3018  -25.9573 S   0  0  0  0  0  0  0  0  0  0  0  0
   -1.3474   25.2352  -24.9593 C   0  0  0  0  0  0  0  0  0  0  0  0
   -1.7837   25.1380  -23.9428 H   0  0  0  0  0  0  0  0  0  0  0  0
   -0.3326   25.6802  -24.8846 H   0  0  0  0  0  0  0  0  0  0  0  0
   -1.2772   24.2337  -25.4341 H   0  0  0  0  0  0  0  0  0  0  0  0
   -1.9078   26.2842  -27.3178 O   0  0  0  0  0  0  0  0  0  0  0  0
   -2.5965   27.5426  -25.2570 O   0  0  0  0  0  0  0  0  0  0  0  0
  1  2  2  0
  1  8  1  0
  2  3  1  0
  2  5  1  0
  3  4  1  0
  3 35  1  0
  5  6  2  0
  6  7  1  0
  6 13  1  0
  7  8  2  0
  7 10  1  0
  8  9  1  0
  9 15  1  0
 10 11  2  0
 11 12  1  0
 11 13  1  0
 13 14  1  0
 15 16  1  0
 15 17  1  0
 15 18  1  0
 18 19  1  0
 18 20  1  0
 18 32  1  0
 20 21  1  0
 20 22  1  0
 20 23  1  0
 23 24  1  0
 23 25  1  0
 23 26  1  0
 26 27  1  0
 26 28  1  0
 26 29  1  0
 29 30  1  0
 29 31  1  0
 29 32  1  0
 32 33  1  0
 32 34  1  0
 35 36  2  0
 35 43  1  0
 36 37  1  0
 36 38  1  0
 38 39  1  0
 38 40  2  0
 40 41  1  0
 40 45  1  0
 41 42  1  0
 41 43  2  0
 43 44  1  0
 45 46  1  0
 45 50  2  0
 45 51  2  0
 46 47  1  0
 46 48  1  0
 46 49  1  0
M  END
> <intraLJ>
23.196    

> <intraEL>
-17.052   

> <intraDihe>
8.790     

> <interLJ>
0.000     

> <interEJ>
0.000     

> <gridLJ>
-5.763    

> <gridEL>
0.000     

> <totalE>
9.171     

> <LGFE>
-5.763  

> <LE>
-0.206  

> <SMILES>
CS(=O)(=O)c1ccc(Nc2nc(OCC3CCCCC3)c3nc[nH]c3n2)cc1

> <atom.dprop.GFE>
-0.2950 -0.0513 -1.6010 0.0000 -0.3070 -0.1255 -0.2261 -0.2457 -0.4810 -1.0750 -0.1036 0.0000 -0.1630 0.0000 -0.3420 0.0000 0.0000 -0.3553 0.0000 -0.2807 0.0000 0.0000 -0.3700 0.0000 0.0000 -0.4742 0.0000 0.0000 -0.3939 0.0000 0.0000 -0.4229 0.0000 0.0000 -0.0369 -0.0047 0.0000 0.0040 0.0000 0.0159 -0.0047 0.0000 0.0882 0.0000 0.0000 0.6670 0.0000 0.0000 0.0000 0.0320 0.7890

> <atom.prop.CLASS>
IMIN GEHC FORN NCLA IMIN GEHC GEHC BENC DMEO IMIN GEHC NCLA IMIH NCLA PRPC NCLA NCLA PRPC NCLA PRPC NCLA NCLA PRPC NCLA NCLA PRPC NCLA NCLA PRPC NCLA NCLA PRPC NCLA NCLA BENC BENC NCLA BENC NCLA BENC BENC NCLA BENC NCLA NCLA PRPC NCLA NCLA NCLA FORO FORO

> <cluster_id>
1

> <rmsd_to_cluster_rep>
0.00    

> <ligRMSD>
1.89    

> <ligCOMD>
1.09    

$$$$
cdk2_hardcastle_31_170
     RDKit          3D

 50 53  0  0  0  0  0  0  0  0999 V2000
   -7.3766   21.5680  -23.1564 N   0  0  0  0  0  0  0  0  0  0  0  0
   -8.3007   21.3501  -24.1595 C   0  0  0  0  0  0  0  0  0  0  0  0
   -8.3228   22.1315  -25.2988 N   0  0  0  0  0  0  0  0  0  0  0  0
   -9.0774   21.9027  -25.9413 H   0  0  0  0  0  0  0  0  0  0  0  0
   -9.2667   20.3882  -24.1107 N   0  0  0  0  0  0  0  0  0  0  0  0
   -9.3209   19.7195  -22.9600 C   0  0  0  0  0  0  0  0  0  0  0  0
   -8.4608   19.9140  -21.8748 C   0  0  0  0  0  0  0  0  0  0  0  0
   -7.4425   20.8778  -22.0037 C   0  0  0  0  0  0  0  0  0  0  0  0
   -6.5899   21.0596  -20.8921 O   0  0  0  0  0  0  0  0  0  0  0  0
   -8.8076   19.0763  -20.8376 N   0  0  0  0  0  0  0  0  0  0  0  0
   -9.8514   18.3986  -21.2945 C   0  0  0  0  0  0  0  0  0  0  0  0
  -10.3918   17.6374  -20.7309 H   0  0  0  0  0  0  0  0  0  0  0  0
  -10.2034   18.7504  -22.5754 N   0  0  0  0  0  0  0  0  0  0  0  0
  -10.9599   18.3853  -23.1335 H   0  0  0  0  0  0  0  0  0  0  0  0
   -5.5645   22.0429  -21.0548 C   0  0  0  0  0  0  0  0  0  0  0  0
   -5.1330   22.3500  -20.0744 H   0  0  0  0  0  0  0  0  0  0  0  0
   -5.9931   22.9365  -21.5590 H   0  0  0  0  0  0  0  0  0  0  0  0
   -4.4098   21.4698  -21.9116 C   0  0  0  0  0  0  0  0  0  0  0  0
   -4.8396   20.7248  -22.6199 H   0  0  0  0  0  0  0  0  0  0  0  0
   -3.7291   22.5736  -22.7568 C   0  0  0  0  0  0  0  0  0  0  0  0
   -3.3747   23.3781  -22.0756 H   0  0  0  0  0  0  0  0  0  0  0  0
   -4.4731   23.0168  -23.4535 H   0  0  0  0  0  0  0  0  0  0  0  0
   -2.5330   22.0442  -23.5641 C   0  0  0  0  0  0  0  0  0  0  0  0
   -2.0451   22.8838  -24.1050 H   0  0  0  0  0  0  0  0  0  0  0  0
   -2.9055   21.3173  -24.3200 H   0  0  0  0  0  0  0  0  0  0  0  0
   -1.5053   21.3393  -22.6674 C   0  0  0  0  0  0  0  0  0  0  0  0
   -1.0637   22.0854  -21.9698 H   0  0  0  0  0  0  0  0  0  0  0  0
   -0.6859   20.9177  -23.2886 H   0  0  0  0  0  0  0  0  0  0  0  0
   -2.1680   20.2233  -21.8477 C   0  0  0  0  0  0  0  0  0  0  0  0
   -1.4205   19.7653  -21.1642 H   0  0  0  0  0  0  0  0  0  0  0  0
   -2.5278   19.4334  -22.5442 H   0  0  0  0  0  0  0  0  0  0  0  0
   -3.3624   20.7442  -21.0336 C   0  0  0  0  0  0  0  0  0  0  0  0
   -3.8466   19.8918  -20.5095 H   0  0  0  0  0  0  0  0  0  0  0  0
   -2.9891   21.4531  -20.2623 H   0  0  0  0  0  0  0  0  0  0  0  0
   -7.4778   23.2072  -25.6667 C   0  0  0  0  0  0  0  0  0  0  0  0
   -7.9751   24.5182  -25.7748 C   0  0  0  0  0  0  0  0  0  0  0  0
   -9.0158   24.7282  -25.5740 H   0  0  0  0  0  0  0  0  0  0  0  0
   -7.1234   25.5775  -26.0934 C   0  0  0  0  0  0  0  0  0  0  0  0
   -7.5200   26.5835  -26.1026 H   0  0  0  0  0  0  0  0  0  0  0  0
   -5.7659   25.3462  -26.3417 C   0  0  0  0  0  0  0  0  0  0  0  0
   -4.7256   26.8253  -26.2775 S   0  0  0  0  0  0  0  0  0  0  0  0
   -4.4097   27.0716  -28.0347 C   0  0  0  0  0  0  0  0  0  0  0  0
   -5.3573   27.1090  -28.6136 H   0  0  0  0  0  0  0  0  0  0  0  0
   -3.7788   26.2572  -28.4495 H   0  0  0  0  0  0  0  0  0  0  0  0
   -3.8761   28.0327  -28.1995 H   0  0  0  0  0  0  0  0  0  0  0  0
   -3.4156   26.4527  -25.5806 O   0  0  0  0  0  0  0  0  0  0  0  0
   -5.2715   24.0272  -26.3182 C   0  0  0  0  0  0  0  0  0  0  0  0
   -4.2234   23.8364  -26.4945 H   0  0  0  0  0  0  0  0  0  0  0  0
   -6.1286   22.9625  -25.9848 C   0  0  0  0  0  0  0  0  0  0  0  0
   -5.7326   21.9586  -25.9347 H   0  0  0  0  0  0  0  0  0  0  0  0
  1  2  2  0
  1  8  1  0
  2  3  1  0
  2  5  1  0
  3  4  1  0
  3 35  1  0
  5  6  2  0
  6  7  1  0
  6 13  1  0
  7  8  2  0
  7 10  1  0
  8  9  1  0
  9 15  1  0
 10 11  2  0
 11 12  1  0
 11 13  1  0
 13 14  1  0
 15 16  1  0
 15 17  1  0
 15 18  1  0
 18 19  1  0
 18 20  1  0
 18 32  1  0
 20 21  1  0
 20 22  1  0
 20 23  1  0
 23 24  1  0
 23 25  1  0
 23 26  1  0
 26 27  1  0
 26 28  1  0
 26 29  1  0
 29 30  1  0
 29 31  1  0
 29 32  1  0
 32 33  1  0
 32 34  1  0
 35 36  2  0
 35 49  1  0
 36 37  1  0
 36 38  1  0
 38 39  1  0
 38 40  2  0
 40 41  1  0
 40 47  1  0
 41 42  1  0
 41 46  2  0
 42 43  1  0
 42 44  1  0
 42 45  1  0
 47 48  1  0
 47 49  2  0
 49 50  1  0
M  CHG  1  41   2
M  END
> <intraLJ>
22.503    

> <intraEL>
-16.604   

> <intraDihe>
9.666     

> <interLJ>
0.000     

> <interEJ>
0.000     

> <gridLJ>
-6.625    

> <gridEL>
0.000     

> <totalE>
8.939     

> <LGFE>
-6.625  

> <LE>
-0.245  

> <SMILES>
C[S+2](=O)c1ccc(Nc2nc(OCC3CCCCC3)c3nc[nH]c3n2)cc1

> <atom.dprop.GFE>
0.0910 -0.0410 -1.4250 0.0000 -0.5190 -0.2261 -0.1112 -0.0581 -0.8030 -0.5730 -0.1542 0.0000 -0.9870 0.0000 0.0260 0.0000 0.0000 -0.3630 0.0000 -0.2807 0.0000 0.0000 -0.1772 0.0000 0.0000 -0.3906 0.0000 0.0000 -0.4742 0.0000 0.0000 -0.2108 0.0000 0.0000 -0.0750 0.0882 0.0000 0.0598 0.0000 0.0040 0.0000 0.2797 0.0000 0.0000 0.0000 -0.6690 0.1409 0.0000 0.2236 0.0000

> <atom.prop.CLASS>
IMIN GEHC FORN NCLA IMIN GEHC GEHC BENC DMEO IMIN GEHC NCLA IMIH NCLA PRPC NCLA NCLA PRPC NCLA PRPC NCLA NCLA PRPC NCLA NCLA PRPC NCLA NCLA PRPC NCLA NCLA PRPC NCLA NCLA BENC BENC NCLA BENC NCLA BENC NCLA PRPC NCLA NCLA NCLA FORO BENC NCLA BENC NCLA

> <cluster_id>
1

> <rmsd_to_cluster_rep>
0.00    

> <ligRMSD>
2.24    

> <ligCOMD>
1.10    

$$$$
cdk2_hardcastle_32_533
     RDKit          3D

 54 57  0  0  0  0  0  0  0  0999 V2000
   -6.9268   22.1554  -24.3388 N   0  0  0  0  0  0  0  0  0  0  0  0
   -8.0637   22.5696  -24.9901 C   0  0  0  0  0  0  0  0  0  0  0  0
   -8.0016   23.6225  -25.8795 N   0  0  0  0  0  0  0  0  0  0  0  0
   -8.8975   23.8817  -26.2857 H   0  0  0  0  0  0  0  0  0  0  0  0
   -9.2937   22.0057  -24.8128 N   0  0  0  0  0  0  0  0  0  0  0  0
   -9.3236   21.0156  -23.9186 C   0  0  0  0  0  0  0  0  0  0  0  0
   -8.2191   20.5498  -23.1946 C   0  0  0  0  0  0  0  0  0  0  0  0
   -6.9717   21.1705  -23.4352 C   0  0  0  0  0  0  0  0  0  0  0  0
   -5.8494   20.7218  -22.7155 O   0  0  0  0  0  0  0  0  0  0  0  0
   -8.6010   19.5201  -22.3590 N   0  0  0  0  0  0  0  0  0  0  0  0
   -9.9025   19.3784  -22.5809 C   0  0  0  0  0  0  0  0  0  0  0  0
  -10.5411   18.6459  -22.0859 H   0  0  0  0  0  0  0  0  0  0  0  0
  -10.3890   20.2597  -23.5169 N   0  0  0  0  0  0  0  0  0  0  0  0
  -11.3358   20.3482  -23.8529 H   0  0  0  0  0  0  0  0  0  0  0  0
   -4.6333   21.4387  -22.9579 C   0  0  0  0  0  0  0  0  0  0  0  0
   -4.7501   22.5291  -22.7572 H   0  0  0  0  0  0  0  0  0  0  0  0
   -4.3153   21.2924  -24.0134 H   0  0  0  0  0  0  0  0  0  0  0  0
   -3.5471   20.9022  -22.0037 C   0  0  0  0  0  0  0  0  0  0  0  0
   -3.4540   19.8021  -22.1546 H   0  0  0  0  0  0  0  0  0  0  0  0
   -2.1604   21.5239  -22.3039 C   0  0  0  0  0  0  0  0  0  0  0  0
   -2.2677   22.6297  -22.3518 H   0  0  0  0  0  0  0  0  0  0  0  0
   -1.8067   21.1713  -23.2972 H   0  0  0  0  0  0  0  0  0  0  0  0
   -1.1065   21.1763  -21.2412 C   0  0  0  0  0  0  0  0  0  0  0  0
   -0.1613   21.7179  -21.4621 H   0  0  0  0  0  0  0  0  0  0  0  0
   -0.8962   20.0843  -21.2817 H   0  0  0  0  0  0  0  0  0  0  0  0
   -1.5919   21.5336  -19.8308 C   0  0  0  0  0  0  0  0  0  0  0  0
   -1.7726   22.6299  -19.7708 H   0  0  0  0  0  0  0  0  0  0  0  0
   -0.8147   21.2666  -19.0829 H   0  0  0  0  0  0  0  0  0  0  0  0
   -2.8937   20.7883  -19.5199 C   0  0  0  0  0  0  0  0  0  0  0  0
   -3.2416   21.0450  -18.4957 H   0  0  0  0  0  0  0  0  0  0  0  0
   -2.7026   19.6926  -19.5562 H   0  0  0  0  0  0  0  0  0  0  0  0
   -3.9818   21.1430  -20.5376 C   0  0  0  0  0  0  0  0  0  0  0  0
   -4.8926   20.5431  -20.3202 H   0  0  0  0  0  0  0  0  0  0  0  0
   -4.2452   22.2170  -20.4156 H   0  0  0  0  0  0  0  0  0  0  0  0
   -6.8554   24.3349  -26.3183 C   0  0  0  0  0  0  0  0  0  0  0  0
   -6.4080   25.4964  -25.6630 C   0  0  0  0  0  0  0  0  0  0  0  0
   -6.9370   25.8768  -24.8009 H   0  0  0  0  0  0  0  0  0  0  0  0
   -5.2633   26.1676  -26.1012 C   0  0  0  0  0  0  0  0  0  0  0  0
   -4.9387   27.0440  -25.5587 H   0  0  0  0  0  0  0  0  0  0  0  0
   -4.5523   25.7201  -27.2326 C   0  0  0  0  0  0  0  0  0  0  0  0
   -5.0369   24.5832  -27.9253 C   0  0  0  0  0  0  0  0  0  0  0  0
   -4.3265   24.0685  -29.0132 O   0  0  0  0  0  0  0  0  0  0  0  0
   -5.0693   24.1286  -30.2268 C   0  0  0  0  0  0  0  0  0  0  0  0
   -5.9775   23.4892  -30.1720 H   0  0  0  0  0  0  0  0  0  0  0  0
   -4.4290   23.7552  -31.0546 H   0  0  0  0  0  0  0  0  0  0  0  0
   -5.3660   25.1749  -30.4616 H   0  0  0  0  0  0  0  0  0  0  0  0
   -6.1680   23.8941  -27.4571 C   0  0  0  0  0  0  0  0  0  0  0  0
   -6.4996   23.0068  -27.9776 H   0  0  0  0  0  0  0  0  0  0  0  0
   -3.1031   26.5913  -27.7905 S   0  0  0  0  0  0  0  0  0  0  0  0
   -1.9429   25.3822  -27.7731 N   0  0  0  0  0  0  0  0  0  0  0  0
   -1.7147   25.0222  -26.8478 H   0  0  0  0  0  0  0  0  0  0  0  0
   -2.1267   24.6164  -28.4212 H   0  0  0  0  0  0  0  0  0  0  0  0
   -3.4133   26.9887  -29.1388 O   0  0  0  0  0  0  0  0  0  0  0  0
   -2.8056   27.5702  -26.7772 O   0  0  0  0  0  0  0  0  0  0  0  0
  1  2  2  0
  1  8  1  0
  2  3  1  0
  2  5  1  0
  3  4  1  0
  3 35  1  0
  5  6  2  0
  6  7  1  0
  6 13  1  0
  7  8  2  0
  7 10  1  0
  8  9  1  0
  9 15  1  0
 10 11  2  0
 11 12  1  0
 11 13  1  0
 13 14  1  0
 15 16  1  0
 15 17  1  0
 15 18  1  0
 18 19  1  0
 18 20  1  0
 18 32  1  0
 20 21  1  0
 20 22  1  0
 20 23  1  0
 23 24  1  0
 23 25  1  0
 23 26  1  0
 26 27  1  0
 26 28  1  0
 26 29  1  0
 29 30  1  0
 29 31  1  0
 29 32  1  0
 32 33  1  0
 32 34  1  0
 35 36  2  0
 35 47  1  0
 36 37  1  0
 36 38  1  0
 38 39  1  0
 38 40  2  0
 40 41  1  0
 40 49  1  0
 41 42  1  0
 41 47  2  0
 42 43  1  0
 43 44  1  0
 43 45  1  0
 43 46  1  0
 47 48  1  0
 49 50  1  0
 49 53  2  0
 49 54  2  0
 50 51  1  0
 50 52  1  0
M  END
> <intraLJ>
24.616    

> <intraEL>
-23.905   

> <intraDihe>
16.638    

> <interLJ>
0.000     

> <interEJ>
0.000     

> <gridLJ>
-5.336    

> <gridEL>
0.000     

> <totalE>
12.014    

> <LGFE>
-5.336  

> <LE>
-0.178  

> <SMILES>
COc1cc(Nc2nc(OCC3CCCCC3)c3nc[nH]c3n2)ccc1S(N)(=O)=O

> <atom.dprop.GFE>
-0.2950 -0.0513 -1.8210 0.0000 -0.2200 -0.0986 -0.1195 -0.1359 -0.5900 -0.7770 -0.1958 0.0000 -0.8950 0.0000 -0.4053 0.0000 0.0000 -0.3630 0.0000 -0.3906 0.0000 0.0000 -0.2218 0.0000 0.0000 -0.0773 0.0000 0.0000 0.1775 0.0000 0.0000 0.0386 0.0000 0.0000 -0.0369 -0.0047 0.0000 0.3542 0.0000 0.2138 -0.0180 0.1680 -0.0573 0.0000 0.0000 0.0000 0.0882 0.0000 0.0000 -0.0950 0.0000 0.0000 0.0320 0.4610

> <atom.prop.CLASS>
IMIN GEHC FORN NCLA IMIN GEHC GEHC BENC DMEO IMIN GEHC NCLA IMIH NCLA PRPC NCLA NCLA PRPC NCLA PRPC NCLA NCLA PRPC NCLA NCLA PRPC NCLA NCLA PRPC NCLA NCLA PRPC NCLA NCLA BENC BENC NCLA BENC NCLA BENC BENC DMEO PRPC NCLA NCLA NCLA BENC NCLA NCLA FORN NCLA NCLA FORO FORO

> <cluster_id>
1

> <rmsd_to_cluster_rep>
0.00    

> <ligRMSD>
1.31    

> <ligCOMD>
1.02    

$$$$
cdk2_hardcastle_33_1oiu_1230
     RDKit          3D

 50 53  0  0  0  0  0  0  0  0999 V2000
   -6.7078   21.9789  -24.3239 N   0  0  0  0  0  0  0  0  0  0  0  0
   -7.7746   22.5351  -24.9775 C   0  0  0  0  0  0  0  0  0  0  0  0
   -7.5750   23.6330  -25.7736 N   0  0  0  0  0  0  0  0  0  0  0  0
   -8.3959   23.9512  -26.2829 H   0  0  0  0  0  0  0  0  0  0  0  0
   -9.0546   22.0855  -24.8754 N   0  0  0  0  0  0  0  0  0  0  0  0
   -9.2088   21.0837  -24.0097 C   0  0  0  0  0  0  0  0  0  0  0  0
   -8.1804   20.4949  -23.2599 C   0  0  0  0  0  0  0  0  0  0  0  0
   -6.8762   20.9965  -23.4409 C   0  0  0  0  0  0  0  0  0  0  0  0
   -5.8206   20.4492  -22.6981 O   0  0  0  0  0  0  0  0  0  0  0  0
   -8.6857   19.4896  -22.4687 N   0  0  0  0  0  0  0  0  0  0  0  0
   -9.9850   19.4811  -22.7395 C   0  0  0  0  0  0  0  0  0  0  0  0
  -10.7081   18.8015  -22.2875 H   0  0  0  0  0  0  0  0  0  0  0  0
  -10.3522   20.4281  -23.6653 N   0  0  0  0  0  0  0  0  0  0  0  0
  -11.2729   20.6160  -24.0313 H   0  0  0  0  0  0  0  0  0  0  0  0
   -4.5537   21.0783  -22.9333 C   0  0  0  0  0  0  0  0  0  0  0  0
   -4.5976   22.1878  -22.8187 H   0  0  0  0  0  0  0  0  0  0  0  0
   -4.1974   20.8287  -23.9571 H   0  0  0  0  0  0  0  0  0  0  0  0
   -3.5500   20.5743  -21.8896 C   0  0  0  0  0  0  0  0  0  0  0  0
   -3.6054   19.4609  -21.8661 H   0  0  0  0  0  0  0  0  0  0  0  0
   -2.0982   20.9585  -22.2472 C   0  0  0  0  0  0  0  0  0  0  0  0
   -2.0207   22.0657  -22.3166 H   0  0  0  0  0  0  0  0  0  0  0  0
   -1.8308   20.5300  -23.2372 H   0  0  0  0  0  0  0  0  0  0  0  0
   -1.1148   20.4481  -21.1856 C   0  0  0  0  0  0  0  0  0  0  0  0
   -0.0834   20.7754  -21.4388 H   0  0  0  0  0  0  0  0  0  0  0  0
   -1.1340   19.3352  -21.1884 H   0  0  0  0  0  0  0  0  0  0  0  0
   -1.4861   20.9433  -19.7784 C   0  0  0  0  0  0  0  0  0  0  0  0
   -1.3626   22.0489  -19.7475 H   0  0  0  0  0  0  0  0  0  0  0  0
   -0.7985   20.4975  -19.0280 H   0  0  0  0  0  0  0  0  0  0  0  0
   -2.9400   20.6019  -19.4192 C   0  0  0  0  0  0  0  0  0  0  0  0
   -3.1986   21.0453  -18.4332 H   0  0  0  0  0  0  0  0  0  0  0  0
   -3.0385   19.4962  -19.3369 H   0  0  0  0  0  0  0  0  0  0  0  0
   -3.9181   21.1032  -20.4861 C   0  0  0  0  0  0  0  0  0  0  0  0
   -4.9478   20.7782  -20.2214 H   0  0  0  0  0  0  0  0  0  0  0  0
   -3.9022   22.2153  -20.5024 H   0  0  0  0  0  0  0  0  0  0  0  0
   -5.6323   24.8209  -24.7932 C   0  0  0  0  0  0  0  0  0  0  0  0
   -5.9499   24.5944  -23.7862 H   0  0  0  0  0  0  0  0  0  0  0  0
   -4.4541   25.5458  -24.9788 C   0  0  0  0  0  0  0  0  0  0  0  0
   -3.8702   25.8589  -24.1253 H   0  0  0  0  0  0  0  0  0  0  0  0
   -4.0455   25.8821  -26.2718 C   0  0  0  0  0  0  0  0  0  0  0  0
   -3.1387   26.4537  -26.4086 H   0  0  0  0  0  0  0  0  0  0  0  0
   -4.8158   25.4932  -27.3858 C   0  0  0  0  0  0  0  0  0  0  0  0
   -5.9781   24.7297  -27.1899 C   0  0  0  0  0  0  0  0  0  0  0  0
   -6.5668   24.4032  -28.0359 H   0  0  0  0  0  0  0  0  0  0  0  0
   -6.3849   24.3822  -25.9030 C   0  0  0  0  0  0  0  0  0  0  0  0
   -4.3050   25.9197  -29.0055 S   0  0  0  0  0  0  0  0  0  0  0  0
   -5.2966   25.3732  -29.8958 O   0  0  0  0  0  0  0  0  0  0  0  0
   -2.9391   25.4669  -29.0258 O   0  0  0  0  0  0  0  0  0  0  0  0
   -4.4139   27.5923  -28.9643 N   0  0  0  0  0  0  0  0  0  0  0  0
   -5.3655   27.9527  -28.9059 H   0  0  0  0  0  0  0  0  0  0  0  0
   -3.9065   28.0618  -29.7132 H   0  0  0  0  0  0  0  0  0  0  0  0
  1  2  2  0
  1  8  1  0
  2  3  1  0
  2  5  1  0
  3  4  1  0
  3 44  1  0
  5  6  2  0
  6  7  1  0
  6 13  1  0
  7  8  2  0
  7 10  1  0
  8  9  1  0
  9 15  1  0
 10 11  2  0
 11 12  1  0
 11 13  1  0
 13 14  1  0
 15 16  1  0
 15 17  1  0
 15 18  1  0
 18 19  1  0
 18 20  1  0
 18 32  1  0
 20 21  1  0
 20 22  1  0
 20 23  1  0
 23 24  1  0
 23 25  1  0
 23 26  1  0
 26 27  1  0
 26 28  1  0
 26 29  1  0
 29 30  1  0
 29 31  1  0
 29 32  1  0
 32 33  1  0
 32 34  1  0
 35 36  1  0
 35 37  2  0
 35 44  1  0
 37 38  1  0
 37 39  1  0
 39 40  1  0
 39 41  2  0
 41 42  1  0
 41 45  1  0
 42 43  1  0
 42 44  2  0
 45 46  2  0
 45 47  2  0
 45 48  1  0
 48 49  1  0
 48 50  1  0
M  END
> <intraLJ>
28.362    

> <intraEL>
-20.984   

> <intraDihe>
14.214    

> <interLJ>
0.000     

> <interEJ>
0.000     

> <gridLJ>
-6.952    

> <gridEL>
0.000     

> <totalE>
14.639    

> <LGFE>
-6.952  

> <LE>
-0.248  

> <SMILES>
NS(=O)(=O)c1cccc(Nc2nc(OCC3CCCCC3)c3nc[nH]c3n2)c1

> <atom.dprop.GFE>
-0.2950 -0.0513 -1.8210 0.0000 -0.2200 -0.0986 -0.1195 -0.1359 -0.5900 -0.7770 -0.1958 0.0000 -0.8950 0.0000 -0.4053 0.0000 0.0000 -0.4229 0.0000 -0.3906 0.0000 0.0000 -0.2311 0.0000 0.0000 -0.0773 0.0000 0.0000 0.1775 0.0000 0.0000 0.0386 0.0000 0.0000 -0.0047 0.0000 0.0040 0.0000 0.2186 0.0000 0.0040 -0.0020 0.0000 0.0324 0.0000 -0.3240 -0.2270 -0.1430 0.0000 0.0000

> <atom.prop.CLASS>
IMIN GEHC FORN NCLA IMIN GEHC GEHC BENC DMEO IMIN GEHC NCLA IMIH NCLA PRPC NCLA NCLA PRPC NCLA PRPC NCLA NCLA PRPC NCLA NCLA PRPC NCLA NCLA PRPC NCLA NCLA PRPC NCLA NCLA BENC NCLA BENC NCLA BENC NCLA BENC BENC NCLA BENC NCLA FORO FORO FORN NCLA NCLA

> <cluster_id>
1

> <rmsd_to_cluster_rep>
0.00    

> <ligRMSD>
1.05    

> <ligCOMD>
1.01    

$$$$
cdk2_hardcastle_34_1oiy_1159
     RDKit          3D

 49 52  0  0  0  0  0  0  0  0999 V2000
   -7.0934   21.9839  -24.3633 N   0  0  0  0  0  0  0  0  0  0  0  0
   -8.2460   22.2476  -25.0565 C   0  0  0  0  0  0  0  0  0  0  0  0
   -8.2090   23.2566  -25.9983 N   0  0  0  0  0  0  0  0  0  0  0  0
   -9.0689   23.4318  -26.5123 H   0  0  0  0  0  0  0  0  0  0  0  0
   -9.4225   21.5798  -24.8551 N   0  0  0  0  0  0  0  0  0  0  0  0
   -9.3690   20.6627  -23.8782 C   0  0  0  0  0  0  0  0  0  0  0  0
   -8.2348   20.3714  -23.1064 C   0  0  0  0  0  0  0  0  0  0  0  0
   -7.0588   21.0891  -23.3832 C   0  0  0  0  0  0  0  0  0  0  0  0
   -5.9142   20.8270  -22.6251 O   0  0  0  0  0  0  0  0  0  0  0  0
   -8.5180   19.3859  -22.1883 N   0  0  0  0  0  0  0  0  0  0  0  0
   -9.7926   19.0923  -22.4050 C   0  0  0  0  0  0  0  0  0  0  0  0
  -10.3581   18.3419  -21.8514 H   0  0  0  0  0  0  0  0  0  0  0  0
  -10.3553   19.8360  -23.4170 N   0  0  0  0  0  0  0  0  0  0  0  0
  -11.3016   19.7950  -23.7632 H   0  0  0  0  0  0  0  0  0  0  0  0
   -4.7924   21.6767  -22.8885 C   0  0  0  0  0  0  0  0  0  0  0  0
   -5.0384   22.7620  -22.8062 H   0  0  0  0  0  0  0  0  0  0  0  0
   -4.3975   21.4673  -23.9062 H   0  0  0  0  0  0  0  0  0  0  0  0
   -3.7261   21.3724  -21.8254 C   0  0  0  0  0  0  0  0  0  0  0  0
   -4.1679   21.5623  -20.8191 H   0  0  0  0  0  0  0  0  0  0  0  0
   -3.2868   19.8905  -21.8442 C   0  0  0  0  0  0  0  0  0  0  0  0
   -2.9691   19.6191  -22.8746 H   0  0  0  0  0  0  0  0  0  0  0  0
   -4.1486   19.2449  -21.5676 H   0  0  0  0  0  0  0  0  0  0  0  0
   -2.1247   19.6303  -20.8767 C   0  0  0  0  0  0  0  0  0  0  0  0
   -1.8077   18.5675  -20.9472 H   0  0  0  0  0  0  0  0  0  0  0  0
   -2.4686   19.8204  -19.8354 H   0  0  0  0  0  0  0  0  0  0  0  0
   -0.9358   20.5504  -21.1830 C   0  0  0  0  0  0  0  0  0  0  0  0
   -0.5767   20.3495  -22.2169 H   0  0  0  0  0  0  0  0  0  0  0  0
   -0.1028   20.3412  -20.4781 H   0  0  0  0  0  0  0  0  0  0  0  0
   -1.3564   22.0200  -21.0702 C   0  0  0  0  0  0  0  0  0  0  0  0
   -0.4954   22.6798  -21.3139 H   0  0  0  0  0  0  0  0  0  0  0  0
   -1.6642   22.2266  -20.0209 H   0  0  0  0  0  0  0  0  0  0  0  0
   -2.5276   22.3354  -22.0056 C   0  0  0  0  0  0  0  0  0  0  0  0
   -2.8653   23.3797  -21.8254 H   0  0  0  0  0  0  0  0  0  0  0  0
   -2.1708   22.2703  -23.0572 H   0  0  0  0  0  0  0  0  0  0  0  0
   -7.0631   24.0523  -26.2690 C   0  0  0  0  0  0  0  0  0  0  0  0
   -6.3541   23.8919  -27.4673 C   0  0  0  0  0  0  0  0  0  0  0  0
   -6.7255   23.2283  -28.2348 H   0  0  0  0  0  0  0  0  0  0  0  0
   -5.1569   24.5903  -27.6771 C   0  0  0  0  0  0  0  0  0  0  0  0
   -4.6347   24.4626  -28.6154 H   0  0  0  0  0  0  0  0  0  0  0  0
   -4.6286   25.4220  -26.6720 C   0  0  0  0  0  0  0  0  0  0  0  0
   -5.3343   25.5715  -25.4621 C   0  0  0  0  0  0  0  0  0  0  0  0
   -4.9585   26.2176  -24.6812 H   0  0  0  0  0  0  0  0  0  0  0  0
   -6.5495   24.9071  -25.2729 C   0  0  0  0  0  0  0  0  0  0  0  0
   -7.0758   25.0259  -24.3364 H   0  0  0  0  0  0  0  0  0  0  0  0
   -3.3801   26.1881  -26.9591 C   0  0  0  0  0  0  0  0  0  0  0  0
   -2.5780   26.4560  -26.0610 O   0  0  0  0  0  0  0  0  0  0  0  0
   -3.2134   26.5780  -28.2617 N   0  0  0  0  0  0  0  0  0  0  0  0
   -2.4082   27.1147  -28.5111 H   0  0  0  0  0  0  0  0  0  0  0  0
   -3.9128   26.3659  -28.9428 H   0  0  0  0  0  0  0  0  0  0  0  0
  1  2  2  0
  1  8  1  0
  2  3  1  0
  2  5  1  0
  3  4  1  0
  3 35  1  0
  5  6  2  0
  6  7  1  0
  6 13  1  0
  7  8  2  0
  7 10  1  0
  8  9  1  0
  9 15  1  0
 10 11  2  0
 11 12  1  0
 11 13  1  0
 13 14  1  0
 15 16  1  0
 15 17  1  0
 15 18  1  0
 18 19  1  0
 18 20  1  0
 18 32  1  0
 20 21  1  0
 20 22  1  0
 20 23  1  0
 23 24  1  0
 23 25  1  0
 23 26  1  0
 26 27  1  0
 26 28  1  0
 26 29  1  0
 29 30  1  0
 29 31  1  0
 29 32  1  0
 32 33  1  0
 32 34  1  0
 35 36  2  0
 35 43  1  0
 36 37  1  0
 36 38  1  0
 38 39  1  0
 38 40  2  0
 40 41  1  0
 40 45  1  0
 41 42  1  0
 41 43  2  0
 43 44  1  0
 45 46  2  0
 45 47  1  0
 47 48  1  0
 47 49  1  0
M  END
> <intraLJ>
29.602    

> <intraEL>
-19.455   

> <intraDihe>
10.278    

> <interLJ>
0.000     

> <interEJ>
0.000     

> <gridLJ>
-6.250    

> <gridEL>
0.000     

> <totalE>
14.175    

> <LGFE>
-6.250  

> <LE>
-0.231  

> <SMILES>
NC(=O)c1ccc(Nc2nc(OCC3CCCCC3)c3nc[nH]c3n2)cc1

> <atom.dprop.GFE>
-0.2950 -0.0513 -1.6010 0.0000 -0.3070 -0.0986 -0.1195 -0.1359 -0.5900 -0.7770 -0.1958 0.0000 -0.8950 0.0000 -0.3430 0.0000 0.0000 -0.3630 0.0000 -0.5065 0.0000 0.0000 -0.3593 0.0000 0.0000 -0.2311 0.0000 0.0000 0.0440 0.0000 0.0000 -0.1915 0.0000 0.0000 -0.0369 0.0882 0.0000 0.0040 0.0000 0.0523 0.0040 0.0000 0.1136 0.0000 0.0000 0.4210 0.1200 0.0000 0.0000

> <atom.prop.CLASS>
IMIN GEHC FORN NCLA IMIN GEHC GEHC BENC DMEO IMIN GEHC NCLA IMIH NCLA PRPC NCLA NCLA PRPC NCLA PRPC NCLA NCLA PRPC NCLA NCLA PRPC NCLA NCLA PRPC NCLA NCLA PRPC NCLA NCLA BENC BENC NCLA BENC NCLA BENC BENC NCLA BENC NCLA NCLA FORO FORN NCLA NCLA

> <cluster_id>
1

> <rmsd_to_cluster_rep>
0.00    

> <ligRMSD>
1.54    

> <ligCOMD>
1.09    

$$$$
cdk2_hardcastle_36_400
     RDKit          3D

 52 55  0  0  0  0  0  0  0  0999 V2000
   -7.2264   21.9403  -24.2954 N   0  0  0  0  0  0  0  0  0  0  0  0
   -8.1473   22.6418  -25.0342 C   0  0  0  0  0  0  0  0  0  0  0  0
   -7.7418   23.7323  -25.7751 N   0  0  0  0  0  0  0  0  0  0  0  0
   -8.4977   24.2392  -26.2293 H   0  0  0  0  0  0  0  0  0  0  0  0
   -9.4777   22.3385  -25.0816 N   0  0  0  0  0  0  0  0  0  0  0  0
   -9.8373   21.3113  -24.3076 C   0  0  0  0  0  0  0  0  0  0  0  0
   -8.9671   20.5641  -23.5060 C   0  0  0  0  0  0  0  0  0  0  0  0
   -7.6038   20.9220  -23.5174 C   0  0  0  0  0  0  0  0  0  0  0  0
   -6.7229   20.1858  -22.7167 O   0  0  0  0  0  0  0  0  0  0  0  0
   -9.6620   19.5783  -22.8375 N   0  0  0  0  0  0  0  0  0  0  0  0
  -10.9187   19.7351  -23.2331 C   0  0  0  0  0  0  0  0  0  0  0  0
  -11.7555   19.1192  -22.9016 H   0  0  0  0  0  0  0  0  0  0  0  0
  -11.0789   20.7712  -24.1229 N   0  0  0  0  0  0  0  0  0  0  0  0
  -11.9304   21.0853  -24.5625 H   0  0  0  0  0  0  0  0  0  0  0  0
   -5.3639   20.1450  -23.1593 C   0  0  0  0  0  0  0  0  0  0  0  0
   -5.2206   20.6183  -24.1591 H   0  0  0  0  0  0  0  0  0  0  0  0
   -5.0179   19.0896  -23.2009 H   0  0  0  0  0  0  0  0  0  0  0  0
   -4.5285   20.9448  -22.1466 C   0  0  0  0  0  0  0  0  0  0  0  0
   -5.0805   20.9734  -21.1780 H   0  0  0  0  0  0  0  0  0  0  0  0
   -3.1648   20.2760  -21.8589 C   0  0  0  0  0  0  0  0  0  0  0  0
   -2.6414   20.0907  -22.8225 H   0  0  0  0  0  0  0  0  0  0  0  0
   -3.3306   19.2951  -21.3626 H   0  0  0  0  0  0  0  0  0  0  0  0
   -2.2766   21.1538  -20.9681 C   0  0  0  0  0  0  0  0  0  0  0  0
   -1.2922   20.6608  -20.8167 H   0  0  0  0  0  0  0  0  0  0  0  0
   -2.7612   21.2722  -19.9732 H   0  0  0  0  0  0  0  0  0  0  0  0
   -2.0750   22.5405  -21.5919 C   0  0  0  0  0  0  0  0  0  0  0  0
   -1.5815   22.4268  -22.5827 H   0  0  0  0  0  0  0  0  0  0  0  0
   -1.4162   23.1566  -20.9429 H   0  0  0  0  0  0  0  0  0  0  0  0
   -3.4260   23.2402  -21.7757 C   0  0  0  0  0  0  0  0  0  0  0  0
   -3.2753   24.2377  -22.2429 H   0  0  0  0  0  0  0  0  0  0  0  0
   -3.8908   23.3934  -20.7762 H   0  0  0  0  0  0  0  0  0  0  0  0
   -4.3705   22.4029  -22.6438 C   0  0  0  0  0  0  0  0  0  0  0  0
   -5.3692   22.8918  -22.6692 H   0  0  0  0  0  0  0  0  0  0  0  0
   -3.9748   22.3849  -23.6832 H   0  0  0  0  0  0  0  0  0  0  0  0
   -6.4240   24.2252  -25.9583 C   0  0  0  0  0  0  0  0  0  0  0  0
   -5.8365   24.1753  -27.2322 C   0  0  0  0  0  0  0  0  0  0  0  0
   -6.3775   23.7500  -28.0652 H   0  0  0  0  0  0  0  0  0  0  0  0
   -4.5396   24.6710  -27.4350 C   0  0  0  0  0  0  0  0  0  0  0  0
   -4.1050   24.6139  -28.4233 H   0  0  0  0  0  0  0  0  0  0  0  0
   -3.8025   25.1996  -26.3580 C   0  0  0  0  0  0  0  0  0  0  0  0
   -4.4120   25.2965  -25.0950 C   0  0  0  0  0  0  0  0  0  0  0  0
   -3.8943   25.7492  -24.2613 H   0  0  0  0  0  0  0  0  0  0  0  0
   -5.7109   24.8238  -24.9017 C   0  0  0  0  0  0  0  0  0  0  0  0
   -6.1576   24.9202  -23.9228 H   0  0  0  0  0  0  0  0  0  0  0  0
   -2.4181   25.7115  -26.5938 C   0  0  0  0  0  0  0  0  0  0  0  0
   -2.2104   26.4435  -27.5592 O   0  0  0  0  0  0  0  0  0  0  0  0
   -1.3949   25.3621  -25.7723 N   0  0  0  0  0  0  0  0  0  0  0  0
   -0.4916   25.7424  -25.9534 H   0  0  0  0  0  0  0  0  0  0  0  0
   -1.4099   24.3303  -24.7656 C   0  0  0  0  0  0  0  0  0  0  0  0
   -0.3933   23.8917  -24.6706 H   0  0  0  0  0  0  0  0  0  0  0  0
   -2.1128   23.5096  -25.0298 H   0  0  0  0  0  0  0  0  0  0  0  0
   -1.6998   24.7568  -23.7813 H   0  0  0  0  0  0  0  0  0  0  0  0
  1  2  2  0
  1  8  1  0
  2  3  1  0
  2  5  1  0
  3  4  1  0
  3 35  1  0
  5  6  2  0
  6  7  1  0
  6 13  1  0
  7  8  2  0
  7 10  1  0
  8  9  1  0
  9 15  1  0
 10 11  2  0
 11 12  1  0
 11 13  1  0
 13 14  1  0
 15 16  1  0
 15 17  1  0
 15 18  1  0
 18 19  1  0
 18 20  1  0
 18 32  1  0
 20 21  1  0
 20 22  1  0
 20 23  1  0
 23 24  1  0
 23 25  1  0
 23 26  1  0
 26 27  1  0
 26 28  1  0
 26 29  1  0
 29 30  1  0
 29 31  1  0
 29 32  1  0
 32 33  1  0
 32 34  1  0
 35 36  2  0
 35 43  1  0
 36 37  1  0
 36 38  1  0
 38 39  1  0
 38 40  2  0
 40 41  1  0
 40 45  1  0
 41 42  1  0
 41 43  2  0
 43 44  1  0
 45 46  2  0
 45 47  1  0
 47 48  1  0
 47 49  1  0
 49 50  1  0
 49 51  1  0
 49 52  1  0
M  END
> <intraLJ>
25.072    

> <intraEL>
-17.600   

> <intraDihe>
17.714    

> <interLJ>
0.000     

> <interEJ>
0.000     

> <gridLJ>
-5.231    

> <gridEL>
0.000     

> <totalE>
19.955    

> <LGFE>
-5.231  

> <LE>
-0.187  

> <SMILES>
CNC(=O)c1ccc(Nc2nc(OCC3CCCCC3)c3nc[nH]c3n2)cc1

> <atom.dprop.GFE>
-0.2950 0.1432 -1.8210 0.0000 -0.3070 -0.1255 -0.2261 -0.2457 -0.4810 -1.0750 -0.1036 0.0000 -0.1170 0.0000 -0.2504 0.0000 0.0000 -0.3553 0.0000 -0.5065 0.0000 0.0000 -0.2887 0.0000 0.0000 0.0386 0.0000 0.0000 -0.1465 0.0000 0.0000 -0.2807 0.0000 0.0000 -0.0369 0.0882 0.0000 0.0040 0.0000 0.0159 0.0287 0.0000 -0.0047 0.0000 0.0000 0.0320 0.5520 0.0000 0.5335 0.0000 0.0000 0.0000

> <atom.prop.CLASS>
IMIN GEHC FORN NCLA IMIN GEHC GEHC BENC DMEO IMIN GEHC NCLA IMIH NCLA PRPC NCLA NCLA PRPC NCLA PRPC NCLA NCLA PRPC NCLA NCLA PRPC NCLA NCLA PRPC NCLA NCLA PRPC NCLA NCLA BENC BENC NCLA BENC NCLA BENC BENC NCLA BENC NCLA NCLA FORO FORN NCLA PRPC NCLA NCLA NCLA

> <cluster_id>
1

> <rmsd_to_cluster_rep>
0.00    

> <ligRMSD>
1.56    

> <ligCOMD>
0.92    

$$$$
cdk2_hardcastle_37_927
     RDKit          3D

 55 58  0  0  0  0  0  0  0  0999 V2000
   -7.1128   22.3258  -24.2842 N   0  0  0  0  0  0  0  0  0  0  0  0
   -8.2856   22.5638  -24.9585 C   0  0  0  0  0  0  0  0  0  0  0  0
   -8.3650   23.6164  -25.8465 N   0  0  0  0  0  0  0  0  0  0  0  0
   -9.3002   23.7924  -26.2055 H   0  0  0  0  0  0  0  0  0  0  0  0
   -9.4204   21.8208  -24.8005 N   0  0  0  0  0  0  0  0  0  0  0  0
   -9.3225   20.8520  -23.8865 C   0  0  0  0  0  0  0  0  0  0  0  0
   -8.1766   20.5661  -23.1365 C   0  0  0  0  0  0  0  0  0  0  0  0
   -7.0351   21.3592  -23.3642 C   0  0  0  0  0  0  0  0  0  0  0  0
   -5.8858   21.0832  -22.6135 O   0  0  0  0  0  0  0  0  0  0  0  0
   -8.4143   19.5082  -22.2853 N   0  0  0  0  0  0  0  0  0  0  0  0
   -9.6748   19.1707  -22.5235 C   0  0  0  0  0  0  0  0  0  0  0  0
  -10.2057   18.3604  -22.0226 H   0  0  0  0  0  0  0  0  0  0  0  0
  -10.2706   19.9538  -23.4841 N   0  0  0  0  0  0  0  0  0  0  0  0
  -11.2140   19.8941  -23.8355 H   0  0  0  0  0  0  0  0  0  0  0  0
   -4.7235   21.8433  -22.9523 C   0  0  0  0  0  0  0  0  0  0  0  0
   -4.8117   22.9177  -22.6661 H   0  0  0  0  0  0  0  0  0  0  0  0
   -4.5382   21.7701  -24.0457 H   0  0  0  0  0  0  0  0  0  0  0  0
   -3.5397   21.2541  -22.1670 C   0  0  0  0  0  0  0  0  0  0  0  0
   -3.7716   21.3183  -21.0781 H   0  0  0  0  0  0  0  0  0  0  0  0
   -3.3171   19.7580  -22.4864 C   0  0  0  0  0  0  0  0  0  0  0  0
   -3.2270   19.6323  -23.5877 H   0  0  0  0  0  0  0  0  0  0  0  0
   -4.1969   19.1713  -22.1436 H   0  0  0  0  0  0  0  0  0  0  0  0
   -2.0494   19.2126  -21.8157 C   0  0  0  0  0  0  0  0  0  0  0  0
   -1.8998   18.1497  -22.1035 H   0  0  0  0  0  0  0  0  0  0  0  0
   -2.1740   19.2577  -20.7106 H   0  0  0  0  0  0  0  0  0  0  0  0
   -0.8181   20.0378  -22.2111 C   0  0  0  0  0  0  0  0  0  0  0  0
   -0.6790   19.9798  -23.3136 H   0  0  0  0  0  0  0  0  0  0  0  0
    0.0897   19.6226  -21.7230 H   0  0  0  0  0  0  0  0  0  0  0  0
   -1.0058   21.5028  -21.8011 C   0  0  0  0  0  0  0  0  0  0  0  0
   -0.1186   22.0982  -22.1085 H   0  0  0  0  0  0  0  0  0  0  0  0
   -1.0920   21.5580  -20.6929 H   0  0  0  0  0  0  0  0  0  0  0  0
   -2.2690   22.0987  -22.4309 C   0  0  0  0  0  0  0  0  0  0  0  0
   -2.4226   23.1263  -22.0341 H   0  0  0  0  0  0  0  0  0  0  0  0
   -2.1146   22.1783  -23.5296 H   0  0  0  0  0  0  0  0  0  0  0  0
   -7.3276   24.4762  -26.2920 C   0  0  0  0  0  0  0  0  0  0  0  0
   -6.8640   24.3633  -27.6124 C   0  0  0  0  0  0  0  0  0  0  0  0
   -7.2760   23.6135  -28.2724 H   0  0  0  0  0  0  0  0  0  0  0  0
   -5.8594   25.2187  -28.0876 C   0  0  0  0  0  0  0  0  0  0  0  0
   -5.5106   25.1064  -29.1048 H   0  0  0  0  0  0  0  0  0  0  0  0
   -5.2891   26.1823  -27.2366 C   0  0  0  0  0  0  0  0  0  0  0  0
   -5.7794   26.3256  -25.9284 C   0  0  0  0  0  0  0  0  0  0  0  0
   -5.3850   27.0845  -25.2669 H   0  0  0  0  0  0  0  0  0  0  0  0
   -6.7989   25.4895  -25.4678 C   0  0  0  0  0  0  0  0  0  0  0  0
   -7.1698   25.6305  -24.4633 H   0  0  0  0  0  0  0  0  0  0  0  0
   -4.1908   27.0547  -27.7411 C   0  0  0  0  0  0  0  0  0  0  0  0
   -4.2622   27.4375  -28.9084 O   0  0  0  0  0  0  0  0  0  0  0  0
   -3.1787   27.4270  -26.8972 N   0  0  0  0  0  0  0  0  0  0  0  0
   -2.3750   28.5775  -27.2531 C   0  0  0  0  0  0  0  0  0  0  0  0
   -1.9655   28.9961  -26.3093 H   0  0  0  0  0  0  0  0  0  0  0  0
   -3.0030   29.3397  -27.7657 H   0  0  0  0  0  0  0  0  0  0  0  0
   -1.5563   28.2176  -27.9125 H   0  0  0  0  0  0  0  0  0  0  0  0
   -2.6522   26.5863  -25.8355 C   0  0  0  0  0  0  0  0  0  0  0  0
   -1.5458   26.5871  -25.9341 H   0  0  0  0  0  0  0  0  0  0  0  0
   -3.0366   25.5478  -25.9272 H   0  0  0  0  0  0  0  0  0  0  0  0
   -2.9605   27.0463  -24.8727 H   0  0  0  0  0  0  0  0  0  0  0  0
  1  2  2  0
  1  8  1  0
  2  3  1  0
  2  5  1  0
  3  4  1  0
  3 35  1  0
  5  6  2  0
  6  7  1  0
  6 13  1  0
  7  8  2  0
  7 10  1  0
  8  9  1  0
  9 15  1  0
 10 11  2  0
 11 12  1  0
 11 13  1  0
 13 14  1  0
 15 16  1  0
 15 17  1  0
 15 18  1  0
 18 19  1  0
 18 20  1  0
 18 32  1  0
 20 21  1  0
 20 22  1  0
 20 23  1  0
 23 24  1  0
 23 25  1  0
 23 26  1  0
 26 27  1  0
 26 28  1  0
 26 29  1  0
 29 30  1  0
 29 31  1  0
 29 32  1  0
 32 33  1  0
 32 34  1  0
 35 36  2  0
 35 43  1  0
 36 37  1  0
 36 38  1  0
 38 39  1  0
 38 40  2  0
 40 41  1  0
 40 45  1  0
 41 42  1  0
 41 43  2  0
 43 44  1  0
 45 46  2  0
 45 47  1  0
 47 48  1  0
 47 52  1  0
 48 49  1  0
 48 50  1  0
 48 51  1  0
 52 53  1  0
 52 54  1  0
 52 55  1  0
M  END
> <intraLJ>
25.970    

> <intraEL>
-15.869   

> <intraDihe>
17.212    

> <interLJ>
0.000     

> <interEJ>
0.000     

> <gridLJ>
-5.004    

> <gridEL>
0.000     

> <totalE>
22.310    

> <LGFE>
-5.004  

> <LE>
-0.173  

> <SMILES>
CN(C)C(=O)c1ccc(Nc2nc(OCC3CCCCC3)c3nc[nH]c3n2)cc1

> <atom.dprop.GFE>
-0.2950 -0.0513 -1.8210 0.0000 -0.3070 -0.0986 -0.1195 -0.1359 -0.5900 -0.7770 -0.1958 0.0000 -0.8950 0.0000 -0.3430 0.0000 0.0000 -0.3630 0.0000 -0.5065 0.0000 0.0000 -0.3453 0.0000 0.0000 -0.3730 0.0000 0.0000 -0.3437 0.0000 0.0000 -0.1192 0.0000 0.0000 -0.0369 0.0782 0.0000 0.0628 0.0000 0.2138 0.5058 0.0000 0.1136 0.0000 0.0000 0.3470 0.4336 0.5035 0.0000 0.0000 0.0000 0.4545 0.0000 0.0000 0.0000

> <atom.prop.CLASS>
IMIN GEHC FORN NCLA IMIN GEHC GEHC BENC DMEO IMIN GEHC NCLA IMIH NCLA PRPC NCLA NCLA PRPC NCLA PRPC NCLA NCLA PRPC NCLA NCLA PRPC NCLA NCLA PRPC NCLA NCLA PRPC NCLA NCLA BENC BENC NCLA BENC NCLA BENC BENC NCLA BENC NCLA NCLA FORO GEHC PRPC NCLA NCLA NCLA PRPC NCLA NCLA NCLA

> <cluster_id>
1

> <rmsd_to_cluster_rep>
0.00    

> <ligRMSD>
1.62    

> <ligCOMD>
1.03    

$$$$
cdk2_hardcastle_38_1232
     RDKit          3D

 50 53  0  0  0  0  0  0  0  0999 V2000
   -7.2568   21.8812  -23.8757 N   0  0  0  0  0  0  0  0  0  0  0  0
   -8.1988   22.2580  -24.8010 C   0  0  0  0  0  0  0  0  0  0  0  0
   -7.9177   23.2634  -25.7004 N   0  0  0  0  0  0  0  0  0  0  0  0
   -8.6919   23.5009  -26.3158 H   0  0  0  0  0  0  0  0  0  0  0  0
   -9.4421   21.7033  -24.8945 N   0  0  0  0  0  0  0  0  0  0  0  0
   -9.7027   20.7749  -23.9719 C   0  0  0  0  0  0  0  0  0  0  0  0
   -8.8114   20.3543  -22.9789 C   0  0  0  0  0  0  0  0  0  0  0  0
   -7.5369   20.9574  -22.9517 C   0  0  0  0  0  0  0  0  0  0  0  0
   -6.6362   20.5491  -21.9610 O   0  0  0  0  0  0  0  0  0  0  0  0
   -9.3968   19.3835  -22.1935 N   0  0  0  0  0  0  0  0  0  0  0  0
  -10.6101   19.2300  -22.7088 C   0  0  0  0  0  0  0  0  0  0  0  0
  -11.3604   18.5327  -22.3341 H   0  0  0  0  0  0  0  0  0  0  0  0
  -10.8458   20.0498  -23.7870 N   0  0  0  0  0  0  0  0  0  0  0  0
  -11.6841   20.1177  -24.3434 H   0  0  0  0  0  0  0  0  0  0  0  0
   -5.6739   21.5240  -21.5516 C   0  0  0  0  0  0  0  0  0  0  0  0
   -5.3331   21.3792  -20.4995 H   0  0  0  0  0  0  0  0  0  0  0  0
   -6.1064   22.5420  -21.6597 H   0  0  0  0  0  0  0  0  0  0  0  0
   -4.4455   21.3624  -22.4615 C   0  0  0  0  0  0  0  0  0  0  0  0
   -4.7891   20.9945  -23.4567 H   0  0  0  0  0  0  0  0  0  0  0  0
   -3.7252   22.7069  -22.7123 C   0  0  0  0  0  0  0  0  0  0  0  0
   -3.4981   23.1846  -21.7341 H   0  0  0  0  0  0  0  0  0  0  0  0
   -4.3969   23.3869  -23.2801 H   0  0  0  0  0  0  0  0  0  0  0  0
   -2.4175   22.5156  -23.4908 C   0  0  0  0  0  0  0  0  0  0  0  0
   -1.9087   23.4954  -23.6174 H   0  0  0  0  0  0  0  0  0  0  0  0
   -2.6500   22.1128  -24.5019 H   0  0  0  0  0  0  0  0  0  0  0  0
   -1.4879   21.5348  -22.7654 C   0  0  0  0  0  0  0  0  0  0  0  0
   -1.2478   21.9378  -21.7563 H   0  0  0  0  0  0  0  0  0  0  0  0
   -0.5381   21.4230  -23.3311 H   0  0  0  0  0  0  0  0  0  0  0  0
   -2.1697   20.1704  -22.6179 C   0  0  0  0  0  0  0  0  0  0  0  0
   -1.4979   19.4677  -22.0785 H   0  0  0  0  0  0  0  0  0  0  0  0
   -2.3638   19.7538  -23.6314 H   0  0  0  0  0  0  0  0  0  0  0  0
   -3.4977   20.2932  -21.8642 C   0  0  0  0  0  0  0  0  0  0  0  0
   -4.0098   19.3059  -21.8685 H   0  0  0  0  0  0  0  0  0  0  0  0
   -3.2815   20.5588  -20.8059 H   0  0  0  0  0  0  0  0  0  0  0  0
   -6.7223   24.0109  -25.8504 C   0  0  0  0  0  0  0  0  0  0  0  0
   -6.0649   23.9993  -27.0892 C   0  0  0  0  0  0  0  0  0  0  0  0
   -6.4450   23.3982  -27.9030 H   0  0  0  0  0  0  0  0  0  0  0  0
   -4.9083   24.7661  -27.2845 C   0  0  0  0  0  0  0  0  0  0  0  0
   -4.4231   24.7355  -28.2503 H   0  0  0  0  0  0  0  0  0  0  0  0
   -4.3834   25.5570  -26.2421 C   0  0  0  0  0  0  0  0  0  0  0  0
   -5.0536   25.5772  -25.0047 C   0  0  0  0  0  0  0  0  0  0  0  0
   -4.7038   26.1745  -24.1756 H   0  0  0  0  0  0  0  0  0  0  0  0
   -6.2193   24.8299  -24.8213 C   0  0  0  0  0  0  0  0  0  0  0  0
   -6.7273   24.8938  -23.8702 H   0  0  0  0  0  0  0  0  0  0  0  0
   -3.1532   26.3513  -26.4804 C   0  0  0  0  0  0  0  0  0  0  0  0
   -2.5680   27.1607  -25.3549 C   0  0  0  0  0  0  0  0  0  0  0  0
   -3.2997   27.9189  -25.0025 H   0  0  0  0  0  0  0  0  0  0  0  0
   -1.6570   27.6874  -25.7105 H   0  0  0  0  0  0  0  0  0  0  0  0
   -2.2862   26.4986  -24.5083 H   0  0  0  0  0  0  0  0  0  0  0  0
   -2.6132   26.3514  -27.5852 O   0  0  0  0  0  0  0  0  0  0  0  0
  1  2  2  0
  1  8  1  0
  2  3  1  0
  2  5  1  0
  3  4  1  0
  3 35  1  0
  5  6  2  0
  6  7  1  0
  6 13  1  0
  7  8  2  0
  7 10  1  0
  8  9  1  0
  9 15  1  0
 10 11  2  0
 11 12  1  0
 11 13  1  0
 13 14  1  0
 15 16  1  0
 15 17  1  0
 15 18  1  0
 18 19  1  0
 18 20  1  0
 18 32  1  0
 20 21  1  0
 20 22  1  0
 20 23  1  0
 23 24  1  0
 23 25  1  0
 23 26  1  0
 26 27  1  0
 26 28  1  0
 26 29  1  0
 29 30  1  0
 29 31  1  0
 29 32  1  0
 32 33  1  0
 32 34  1  0
 35 36  2  0
 35 43  1  0
 36 37  1  0
 36 38  1  0
 38 39  1  0
 38 40  2  0
 40 41  1  0
 40 45  1  0
 41 42  1  0
 41 43  2  0
 43 44  1  0
 45 46  1  0
 45 50  2  0
 46 47  1  0
 46 48  1  0
 46 49  1  0
M  END
> <intraLJ>
25.529    

> <intraEL>
-16.307   

> <intraDihe>
9.147     

> <interLJ>
0.000     

> <interEJ>
0.000     

> <gridLJ>
-6.123    

> <gridEL>
0.000     

> <totalE>
12.246    

> <LGFE>
-6.123  

> <LE>
-0.227  

> <SMILES>
CC(=O)c1ccc(Nc2nc(OCC3CCCCC3)c3nc[nH]c3n2)cc1

> <atom.dprop.GFE>
-0.2950 -0.0513 -1.6080 0.0000 -0.3070 -0.1255 -0.2261 -0.2457 -0.4810 -0.7770 -0.1655 0.0000 -0.1630 0.0000 -0.2980 0.0000 0.0000 -0.3553 0.0000 -0.1465 0.0000 0.0000 -0.1772 0.0000 0.0000 -0.3906 0.0000 0.0000 -0.4742 0.0000 0.0000 -0.4229 0.0000 0.0000 -0.0369 0.0882 0.0000 0.0040 0.0000 0.0159 0.0040 0.0000 -0.0047 0.0000 0.0000 0.6117 0.0000 0.0000 0.0000 -0.0950

> <atom.prop.CLASS>
IMIN GEHC FORN NCLA IMIN GEHC GEHC BENC DMEO IMIN GEHC NCLA IMIH NCLA PRPC NCLA NCLA PRPC NCLA PRPC NCLA NCLA PRPC NCLA NCLA PRPC NCLA NCLA PRPC NCLA NCLA PRPC NCLA NCLA BENC BENC NCLA BENC NCLA BENC BENC NCLA BENC NCLA NCLA PRPC NCLA NCLA NCLA FORO

> <cluster_id>
1

> <rmsd_to_cluster_rep>
0.00    

> <ligRMSD>
1.72    

> <ligCOMD>
1.01    

$$$$
cdk2_hardcastle_39_591
     RDKit          3D

 47 50  0  0  0  0  0  0  0  0999 V2000
   -7.3177   22.0740  -24.2631 N   0  0  0  0  0  0  0  0  0  0  0  0
   -8.3974   22.5469  -24.9668 C   0  0  0  0  0  0  0  0  0  0  0  0
   -8.2368   23.5928  -25.8489 N   0  0  0  0  0  0  0  0  0  0  0  0
   -9.1046   23.9477  -26.2428 H   0  0  0  0  0  0  0  0  0  0  0  0
   -9.6637   22.0522  -24.8465 N   0  0  0  0  0  0  0  0  0  0  0  0
   -9.7915   21.0794  -23.9417 C   0  0  0  0  0  0  0  0  0  0  0  0
   -8.7499   20.5607  -23.1645 C   0  0  0  0  0  0  0  0  0  0  0  0
   -7.4638   21.1073  -23.3530 C   0  0  0  0  0  0  0  0  0  0  0  0
   -6.4125   20.6014  -22.5800 O   0  0  0  0  0  0  0  0  0  0  0  0
   -9.2246   19.5678  -22.3333 N   0  0  0  0  0  0  0  0  0  0  0  0
  -10.5204   19.4974  -22.6106 C   0  0  0  0  0  0  0  0  0  0  0  0
  -11.2207   18.8099  -22.1351 H   0  0  0  0  0  0  0  0  0  0  0  0
  -10.9146   20.3921  -23.5774 N   0  0  0  0  0  0  0  0  0  0  0  0
  -11.8391   20.5297  -23.9559 H   0  0  0  0  0  0  0  0  0  0  0  0
   -5.1192   21.1472  -22.8521 C   0  0  0  0  0  0  0  0  0  0  0  0
   -5.0765   22.2521  -22.7058 H   0  0  0  0  0  0  0  0  0  0  0  0
   -4.8247   20.9046  -23.8959 H   0  0  0  0  0  0  0  0  0  0  0  0
   -4.1374   20.5112  -21.8549 C   0  0  0  0  0  0  0  0  0  0  0  0
   -4.3023   19.4082  -21.8515 H   0  0  0  0  0  0  0  0  0  0  0  0
   -2.6638   20.7362  -22.2638 C   0  0  0  0  0  0  0  0  0  0  0  0
   -2.4948   21.8232  -22.4271 H   0  0  0  0  0  0  0  0  0  0  0  0
   -2.4600   20.2085  -23.2208 H   0  0  0  0  0  0  0  0  0  0  0  0
   -1.6919   20.2350  -21.1883 C   0  0  0  0  0  0  0  0  0  0  0  0
   -0.6462   20.4490  -21.4979 H   0  0  0  0  0  0  0  0  0  0  0  0
   -1.8027   19.1328  -21.0807 H   0  0  0  0  0  0  0  0  0  0  0  0
   -1.9821   20.8996  -19.8368 C   0  0  0  0  0  0  0  0  0  0  0  0
   -1.8656   22.0015  -19.9395 H   0  0  0  0  0  0  0  0  0  0  0  0
   -1.2574   20.5419  -19.0743 H   0  0  0  0  0  0  0  0  0  0  0  0
   -3.4117   20.5804  -19.3865 C   0  0  0  0  0  0  0  0  0  0  0  0
   -3.6220   21.0767  -18.4141 H   0  0  0  0  0  0  0  0  0  0  0  0
   -3.5064   19.4811  -19.2414 H   0  0  0  0  0  0  0  0  0  0  0  0
   -4.4361   21.0380  -20.4295 C   0  0  0  0  0  0  0  0  0  0  0  0
   -5.4482   20.6982  -20.1177 H   0  0  0  0  0  0  0  0  0  0  0  0
   -4.4442   22.1501  -20.4545 H   0  0  0  0  0  0  0  0  0  0  0  0
   -7.0367   24.2346  -26.2453 C   0  0  0  0  0  0  0  0  0  0  0  0
   -6.6842   24.2379  -27.6022 C   0  0  0  0  0  0  0  0  0  0  0  0
   -7.3007   23.7270  -28.3279 H   0  0  0  0  0  0  0  0  0  0  0  0
   -5.5285   24.9025  -28.0306 C   0  0  0  0  0  0  0  0  0  0  0  0
   -5.2782   24.8893  -29.0818 H   0  0  0  0  0  0  0  0  0  0  0  0
   -4.6969   25.5768  -27.1085 C   0  0  0  0  0  0  0  0  0  0  0  0
   -5.0671   25.5776  -25.7486 C   0  0  0  0  0  0  0  0  0  0  0  0
   -4.4620   26.0917  -25.0150 H   0  0  0  0  0  0  0  0  0  0  0  0
   -6.2302   24.9335  -25.3273 C   0  0  0  0  0  0  0  0  0  0  0  0
   -6.4978   24.9807  -24.2820 H   0  0  0  0  0  0  0  0  0  0  0  0
   -3.4270   26.3009  -27.5665 C   0  0  0  0  0  0  0  0  0  0  0  0
   -2.7434   26.8746  -26.6744 O   0  0  0  0  0  0  0  0  0  0  0  0
   -3.1676   26.2651  -28.8000 O   0  0  0  0  0  0  0  0  0  0  0  0
  1  2  2  0
  1  8  1  0
  2  3  1  0
  2  5  1  0
  3  4  1  0
  3 35  1  0
  5  6  2  0
  6  7  1  0
  6 13  1  0
  7  8  2  0
  7 10  1  0
  8  9  1  0
  9 15  1  0
 10 11  2  0
 11 12  1  0
 11 13  1  0
 13 14  1  0
 15 16  1  0
 15 17  1  0
 15 18  1  0
 18 19  1  0
 18 20  1  0
 18 32  1  0
 20 21  1  0
 20 22  1  0
 20 23  1  0
 23 24  1  0
 23 25  1  0
 23 26  1  0
 26 27  1  0
 26 28  1  0
 26 29  1  0
 29 30  1  0
 29 31  1  0
 29 32  1  0
 32 33  1  0
 32 34  1  0
 35 36  2  0
 35 43  1  0
 36 37  1  0
 36 38  1  0
 38 39  1  0
 38 40  2  0
 40 41  1  0
 40 45  1  0
 41 42  1  0
 41 43  2  0
 43 44  1  0
 45 46  1  0
 45 47  2  0
M  CHG  1  46  -1
M  END
> <intraLJ>
27.104    

> <intraEL>
-15.530   

> <intraDihe>
7.610     

> <interLJ>
0.000     

> <interEJ>
0.000     

> <gridLJ>
-6.624    

> <gridEL>
0.000     

> <totalE>
12.559    

> <LGFE>
-6.624  

> <LE>
-0.245  

> <SMILES>
O=C([O-])c1ccc(Nc2nc(OCC3CCCCC3)c3nc[nH]c3n2)cc1

> <atom.dprop.GFE>
-0.2950 -0.0513 -1.8210 0.0000 -0.3070 -0.1255 -0.2261 -0.2457 -0.5900 -0.7770 -0.1655 0.0000 -0.0130 0.0000 -0.4053 0.0000 0.0000 -0.4229 0.0000 -0.3783 0.0000 0.0000 -0.3593 0.0000 0.0000 -0.0773 0.0000 0.0000 0.1775 0.0000 0.0000 -0.1372 0.0000 0.0000 -0.0369 0.0782 0.0000 0.0628 0.0000 0.0040 0.0040 0.0000 -0.0047 0.0000 -0.5120 0.0000 0.0000

> <atom.prop.CLASS>
IMIN GEHC FORN NCLA IMIN GEHC GEHC BENC DMEO IMIN GEHC NCLA IMIH NCLA PRPC NCLA NCLA PRPC NCLA PRPC NCLA NCLA PRPC NCLA NCLA PRPC NCLA NCLA PRPC NCLA NCLA PRPC NCLA NCLA BENC BENC NCLA BENC NCLA BENC BENC NCLA BENC NCLA ACEC NCLA NCLA

> <cluster_id>
1

> <rmsd_to_cluster_rep>
0.00    

> <ligRMSD>
1.07    

> <ligCOMD>
0.97    

$$$$
cdk2_hardcastle_41_624
     RDKit          3D

 52 55  0  0  0  0  0  0  0  0999 V2000
   -7.3948   22.3660  -24.7729 N   0  0  0  0  0  0  0  0  0  0  0  0
   -8.2915   22.7724  -25.7301 C   0  0  0  0  0  0  0  0  0  0  0  0
   -7.9145   23.6893  -26.6859 N   0  0  0  0  0  0  0  0  0  0  0  0
   -8.6421   23.9050  -27.3632 H   0  0  0  0  0  0  0  0  0  0  0  0
   -9.5810   22.3328  -25.8053 N   0  0  0  0  0  0  0  0  0  0  0  0
   -9.9344   21.4919  -24.8316 C   0  0  0  0  0  0  0  0  0  0  0  0
   -9.0938   21.0525  -23.8034 C   0  0  0  0  0  0  0  0  0  0  0  0
   -7.7682   21.5325  -23.7969 C   0  0  0  0  0  0  0  0  0  0  0  0
   -6.9196   21.1030  -22.7696 O   0  0  0  0  0  0  0  0  0  0  0  0
   -9.7739   20.1928  -22.9667 N   0  0  0  0  0  0  0  0  0  0  0  0
  -10.9926   20.1222  -23.4868 C   0  0  0  0  0  0  0  0  0  0  0  0
  -11.8081   19.5238  -23.0790 H   0  0  0  0  0  0  0  0  0  0  0  0
  -11.1421   20.8908  -24.6169 N   0  0  0  0  0  0  0  0  0  0  0  0
  -11.9665   21.0024  -25.1869 H   0  0  0  0  0  0  0  0  0  0  0  0
   -5.5845   21.6124  -22.8088 C   0  0  0  0  0  0  0  0  0  0  0  0
   -5.5442   22.7243  -22.7320 H   0  0  0  0  0  0  0  0  0  0  0  0
   -5.0923   21.2926  -23.7525 H   0  0  0  0  0  0  0  0  0  0  0  0
   -4.8388   21.0386  -21.5928 C   0  0  0  0  0  0  0  0  0  0  0  0
   -4.9397   19.9280  -21.6086 H   0  0  0  0  0  0  0  0  0  0  0  0
   -3.3245   21.3460  -21.6401 C   0  0  0  0  0  0  0  0  0  0  0  0
   -3.1810   22.4402  -21.7770 H   0  0  0  0  0  0  0  0  0  0  0  0
   -2.8682   20.8271  -22.5110 H   0  0  0  0  0  0  0  0  0  0  0  0
   -2.6127   20.9055  -20.3546 C   0  0  0  0  0  0  0  0  0  0  0  0
   -1.5370   21.1793  -20.4081 H   0  0  0  0  0  0  0  0  0  0  0  0
   -2.6840   19.7989  -20.2590 H   0  0  0  0  0  0  0  0  0  0  0  0
   -3.2554   21.5542  -19.1222 C   0  0  0  0  0  0  0  0  0  0  0  0
   -3.1763   22.6607  -19.2092 H   0  0  0  0  0  0  0  0  0  0  0  0
   -2.7178   21.2375  -18.2028 H   0  0  0  0  0  0  0  0  0  0  0  0
   -4.7325   21.1576  -19.0244 C   0  0  0  0  0  0  0  0  0  0  0  0
   -5.1970   21.6437  -18.1389 H   0  0  0  0  0  0  0  0  0  0  0  0
   -4.8008   20.0551  -18.8890 H   0  0  0  0  0  0  0  0  0  0  0  0
   -5.4985   21.5547  -20.2903 C   0  0  0  0  0  0  0  0  0  0  0  0
   -6.5369   21.1614  -20.2245 H   0  0  0  0  0  0  0  0  0  0  0  0
   -5.5580   22.6645  -20.3356 H   0  0  0  0  0  0  0  0  0  0  0  0
   -6.6758   24.3592  -26.8409 C   0  0  0  0  0  0  0  0  0  0  0  0
   -5.8162   23.9410  -27.8687 C   0  0  0  0  0  0  0  0  0  0  0  0
   -6.0823   23.1030  -28.4973 H   0  0  0  0  0  0  0  0  0  0  0  0
   -4.6051   24.6062  -28.0909 C   0  0  0  0  0  0  0  0  0  0  0  0
   -3.9547   24.2853  -28.8917 H   0  0  0  0  0  0  0  0  0  0  0  0
   -4.2395   25.7032  -27.2910 C   0  0  0  0  0  0  0  0  0  0  0  0
   -2.9786   26.4774  -27.5928 C   0  0  0  0  0  0  0  0  0  0  0  0
   -2.3030   25.8190  -28.1823 H   0  0  0  0  0  0  0  0  0  0  0  0
   -2.4641   26.7423  -26.6422 H   0  0  0  0  0  0  0  0  0  0  0  0
   -5.1018   26.1321  -26.2716 C   0  0  0  0  0  0  0  0  0  0  0  0
   -4.8414   26.9876  -25.6654 H   0  0  0  0  0  0  0  0  0  0  0  0
   -6.3172   25.4779  -26.0607 C   0  0  0  0  0  0  0  0  0  0  0  0
   -6.9784   25.8511  -25.2929 H   0  0  0  0  0  0  0  0  0  0  0  0
   -3.2887   27.7209  -28.3800 C   0  0  0  0  0  0  0  0  0  0  0  0
   -3.4258   27.5999  -29.7372 N   0  0  0  0  0  0  0  0  0  0  0  0
   -3.6140   28.4135  -30.2854 H   0  0  0  0  0  0  0  0  0  0  0  0
   -3.2878   26.7120  -30.1741 H   0  0  0  0  0  0  0  0  0  0  0  0
   -3.4128   28.7984  -27.7927 O   0  0  0  0  0  0  0  0  0  0  0  0
  1  2  2  0
  1  8  1  0
  2  3  1  0
  2  5  1  0
  3  4  1  0
  3 35  1  0
  5  6  2  0
  6  7  1  0
  6 13  1  0
  7  8  2  0
  7 10  1  0
  8  9  1  0
  9 15  1  0
 10 11  2  0
 11 12  1  0
 11 13  1  0
 13 14  1  0
 15 16  1  0
 15 17  1  0
 15 18  1  0
 18 19  1  0
 18 20  1  0
 18 32  1  0
 20 21  1  0
 20 22  1  0
 20 23  1  0
 23 24  1  0
 23 25  1  0
 23 26  1  0
 26 27  1  0
 26 28  1  0
 26 29  1  0
 29 30  1  0
 29 31  1  0
 29 32  1  0
 32 33  1  0
 32 34  1  0
 35 36  2  0
 35 46  1  0
 36 37  1  0
 36 38  1  0
 38 39  1  0
 38 40  2  0
 40 41  1  0
 40 44  1  0
 41 42  1  0
 41 43  1  0
 41 48  1  0
 44 45  1  0
 44 46  2  0
 46 47  1  0
 48 49  1  0
 48 52  2  0
 49 50  1  0
 49 51  1  0
M  END
> <intraLJ>
24.346    

> <intraEL>
-22.765   

> <intraDihe>
10.893    

> <interLJ>
0.000     

> <interEJ>
0.000     

> <gridLJ>
-5.101    

> <gridEL>
0.000     

> <totalE>
7.372     

> <LGFE>
-5.101  

> <LE>
-0.182  

> <SMILES>
NC(=O)Cc1ccc(Nc2nc(OCC3CCCCC3)c3nc[nH]c3n2)cc1

> <atom.dprop.GFE>
-0.4590 0.1432 -1.8210 0.0000 -0.7670 -0.1112 -0.0986 -0.3273 -0.3020 -1.0750 -0.1036 0.0000 -0.1170 0.0000 -0.3167 0.0000 0.0000 -0.2424 0.0000 -0.2108 0.0000 0.0000 0.0386 0.0000 0.0000 0.1775 0.0000 0.0000 0.1525 0.0000 0.0000 -0.2857 0.0000 0.0000 0.0782 0.1431 0.0000 -0.0180 0.0000 0.1207 0.2711 0.0000 0.0000 0.3542 0.0000 0.0040 0.0000 0.0000 -0.1430 0.0000 0.0000 -0.1860

> <atom.prop.CLASS>
IMIN GEHC FORN NCLA IMIN GEHC GEHC BENC DMEO IMIN GEHC NCLA IMIH NCLA PRPC NCLA NCLA PRPC NCLA PRPC NCLA NCLA PRPC NCLA NCLA PRPC NCLA NCLA PRPC NCLA NCLA PRPC NCLA NCLA BENC BENC NCLA BENC NCLA BENC PRPC NCLA NCLA BENC NCLA BENC NCLA NCLA FORN NCLA NCLA FORO

> <cluster_id>
1

> <rmsd_to_cluster_rep>
0.00    

> <ligRMSD>
1.63    

> <ligCOMD>
0.94    

$$$$
cdk2_hardcastle_42_709
     RDKit          3D

 49 52  0  0  0  0  0  0  0  0999 V2000
   -7.0806   22.2546  -24.2863 N   0  0  0  0  0  0  0  0  0  0  0  0
   -8.2484   22.5533  -24.9443 C   0  0  0  0  0  0  0  0  0  0  0  0
   -8.2919   23.6033  -25.8347 N   0  0  0  0  0  0  0  0  0  0  0  0
   -9.2200   23.7978  -26.2024 H   0  0  0  0  0  0  0  0  0  0  0  0
   -9.4184   21.8729  -24.7721 N   0  0  0  0  0  0  0  0  0  0  0  0
   -9.3590   20.8934  -23.8684 C   0  0  0  0  0  0  0  0  0  0  0  0
   -8.2202   20.5420  -23.1360 C   0  0  0  0  0  0  0  0  0  0  0  0
   -7.0413   21.2785  -23.3736 C   0  0  0  0  0  0  0  0  0  0  0  0
   -5.8963   20.9393  -22.6432 O   0  0  0  0  0  0  0  0  0  0  0  0
   -8.5036   19.4898  -22.2907 N   0  0  0  0  0  0  0  0  0  0  0  0
   -9.7835   19.2212  -22.5164 C   0  0  0  0  0  0  0  0  0  0  0  0
  -10.3508   18.4354  -22.0162 H   0  0  0  0  0  0  0  0  0  0  0  0
  -10.3482   20.0429  -23.4629 N   0  0  0  0  0  0  0  0  0  0  0  0
  -11.2973   20.0365  -23.8038 H   0  0  0  0  0  0  0  0  0  0  0  0
   -4.7661   21.7967  -22.8196 C   0  0  0  0  0  0  0  0  0  0  0  0
   -5.0093   22.8720  -22.6506 H   0  0  0  0  0  0  0  0  0  0  0  0
   -4.3600   21.6701  -23.8464 H   0  0  0  0  0  0  0  0  0  0  0  0
   -3.7162   21.3905  -21.7726 C   0  0  0  0  0  0  0  0  0  0  0  0
   -4.1850   21.4464  -20.7622 H   0  0  0  0  0  0  0  0  0  0  0  0
   -3.2417   19.9312  -21.9595 C   0  0  0  0  0  0  0  0  0  0  0  0
   -2.9038   19.7916  -23.0097 H   0  0  0  0  0  0  0  0  0  0  0  0
   -4.0918   19.2388  -21.7761 H   0  0  0  0  0  0  0  0  0  0  0  0
   -2.0868   19.5819  -21.0123 C   0  0  0  0  0  0  0  0  0  0  0  0
   -1.7462   18.5414  -21.2028 H   0  0  0  0  0  0  0  0  0  0  0  0
   -2.4463   19.6416  -19.9607 H   0  0  0  0  0  0  0  0  0  0  0  0
   -0.9159   20.5557  -21.1945 C   0  0  0  0  0  0  0  0  0  0  0  0
   -0.5483   20.4926  -22.2428 H   0  0  0  0  0  0  0  0  0  0  0  0
   -0.0817   20.2776  -20.5152 H   0  0  0  0  0  0  0  0  0  0  0  0
   -1.3697   21.9898  -20.9015 C   0  0  0  0  0  0  0  0  0  0  0  0
   -0.5215   22.6931  -21.0500 H   0  0  0  0  0  0  0  0  0  0  0  0
   -1.6910   22.0554  -19.8380 H   0  0  0  0  0  0  0  0  0  0  0  0
   -2.5391   22.3964  -21.8037 C   0  0  0  0  0  0  0  0  0  0  0  0
   -2.9057   23.3994  -21.4926 H   0  0  0  0  0  0  0  0  0  0  0  0
   -2.1682   22.4798  -22.8491 H   0  0  0  0  0  0  0  0  0  0  0  0
   -7.2324   24.4197  -26.3012 C   0  0  0  0  0  0  0  0  0  0  0  0
   -7.0470   24.5532  -27.6868 C   0  0  0  0  0  0  0  0  0  0  0  0
   -7.6817   24.0160  -28.3771 H   0  0  0  0  0  0  0  0  0  0  0  0
   -6.0385   25.3861  -28.1881 C   0  0  0  0  0  0  0  0  0  0  0  0
   -5.9089   25.4896  -29.2554 H   0  0  0  0  0  0  0  0  0  0  0  0
   -5.1979   26.0885  -27.3080 C   0  0  0  0  0  0  0  0  0  0  0  0
   -4.1560   27.0301  -27.8352 C   0  0  0  0  0  0  0  0  0  0  0  0
   -3.7705   26.6452  -28.8044 H   0  0  0  0  0  0  0  0  0  0  0  0
   -3.3134   27.0834  -27.1115 H   0  0  0  0  0  0  0  0  0  0  0  0
   -5.3942   25.9741  -25.9243 C   0  0  0  0  0  0  0  0  0  0  0  0
   -4.7709   26.5332  -25.2413 H   0  0  0  0  0  0  0  0  0  0  0  0
   -6.4138   25.1616  -25.4257 C   0  0  0  0  0  0  0  0  0  0  0  0
   -6.5631   25.1148  -24.3572 H   0  0  0  0  0  0  0  0  0  0  0  0
   -4.7125   28.3761  -28.0328 C   0  0  0  0  0  0  0  0  0  0  0  0
   -5.2105   29.4358  -28.1741 N   0  0  0  0  0  0  0  0  0  0  0  0
  1  2  2  0
  1  8  1  0
  2  3  1  0
  2  5  1  0
  3  4  1  0
  3 35  1  0
  5  6  2  0
  6  7  1  0
  6 13  1  0
  7  8  2  0
  7 10  1  0
  8  9  1  0
  9 15  1  0
 10 11  2  0
 11 12  1  0
 11 13  1  0
 13 14  1  0
 15 16  1  0
 15 17  1  0
 15 18  1  0
 18 19  1  0
 18 20  1  0
 18 32  1  0
 20 21  1  0
 20 22  1  0
 20 23  1  0
 23 24  1  0
 23 25  1  0
 23 26  1  0
 26 27  1  0
 26 28  1  0
 26 29  1  0
 29 30  1  0
 29 31  1  0
 29 32  1  0
 32 33  1  0
 32 34  1  0
 35 36  2  0
 35 46  1  0
 36 37  1  0
 36 38  1  0
 38 39  1  0
 38 40  2  0
 40 41  1  0
 40 44  1  0
 41 42  1  0
 41 43  1  0
 41 48  1  0
 44 45  1  0
 44 46  2  0
 46 47  1  0
 48 49  3  0
M  END
> <intraLJ>
24.387    

> <intraEL>
-17.273   

> <intraDihe>
9.250     

> <interLJ>
0.000     

> <interEJ>
0.000     

> <gridLJ>
-6.289    

> <gridEL>
0.000     

> <totalE>
10.075    

> <LGFE>
-6.289  

> <LE>
-0.233  

> <SMILES>
N#CCc1ccc(Nc2nc(OCC3CCCCC3)c3nc[nH]c3n2)cc1

> <atom.dprop.GFE>
-0.2950 -0.0513 -1.8210 0.0000 -0.3070 -0.0986 -0.1195 -0.1359 -0.5900 -0.7770 -0.1958 0.0000 -0.8950 0.0000 -0.3430 0.0000 0.0000 -0.3630 0.0000 -0.5065 0.0000 0.0000 -0.3593 0.0000 0.0000 -0.2311 0.0000 0.0000 0.0440 0.0000 0.0000 -0.1915 0.0000 0.0000 -0.0369 0.0782 0.0000 0.0628 0.0000 0.2138 0.2797 0.0000 0.0000 0.3542 0.0000 -0.0047 0.0000 0.0000 0.0000

> <atom.prop.CLASS>
IMIN GEHC FORN NCLA IMIN GEHC GEHC BENC DMEO IMIN GEHC NCLA IMIH NCLA PRPC NCLA NCLA PRPC NCLA PRPC NCLA NCLA PRPC NCLA NCLA PRPC NCLA NCLA PRPC NCLA NCLA PRPC NCLA NCLA BENC BENC NCLA BENC NCLA BENC PRPC NCLA NCLA BENC NCLA BENC NCLA NCLA NCLA

> <cluster_id>
1

> <rmsd_to_cluster_rep>
0.00    

> <ligRMSD>
1.41    

> <ligCOMD>
1.05    

$$$$
cdk2_hardcastle_43_521
     RDKit          3D

 45 48  0  0  0  0  0  0  0  0999 V2000
   -7.2838   21.2340  -22.9555 N   0  0  0  0  0  0  0  0  0  0  0  0
   -8.2700   21.2059  -23.9067 C   0  0  0  0  0  0  0  0  0  0  0  0
   -8.1755   22.0500  -24.9857 N   0  0  0  0  0  0  0  0  0  0  0  0
   -8.7202   21.7334  -25.7851 H   0  0  0  0  0  0  0  0  0  0  0  0
   -6.8825   22.6816  -25.3553 C   0  0  0  0  0  0  0  0  0  0  0  0
   -6.1153   21.9303  -25.6326 H   0  0  0  0  0  0  0  0  0  0  0  0
   -6.4887   23.2363  -24.4747 H   0  0  0  0  0  0  0  0  0  0  0  0
   -9.3488   20.3713  -23.8804 N   0  0  0  0  0  0  0  0  0  0  0  0
   -9.3854   19.5588  -22.8247 C   0  0  0  0  0  0  0  0  0  0  0  0
   -8.4438   19.5413  -21.7903 C   0  0  0  0  0  0  0  0  0  0  0  0
   -7.3541   20.4334  -21.8864 C   0  0  0  0  0  0  0  0  0  0  0  0
   -6.4077   20.4268  -20.8556 O   0  0  0  0  0  0  0  0  0  0  0  0
   -8.7979   18.6056  -20.8416 N   0  0  0  0  0  0  0  0  0  0  0  0
   -9.9232   18.0758  -21.3047 C   0  0  0  0  0  0  0  0  0  0  0  0
  -10.4924   17.2915  -20.8043 H   0  0  0  0  0  0  0  0  0  0  0  0
  -10.3199   18.6159  -22.5048 N   0  0  0  0  0  0  0  0  0  0  0  0
  -11.1356   18.3840  -23.0506 H   0  0  0  0  0  0  0  0  0  0  0  0
   -5.4197   21.4587  -20.9085 C   0  0  0  0  0  0  0  0  0  0  0  0
   -4.9469   21.6579  -19.9182 H   0  0  0  0  0  0  0  0  0  0  0  0
   -5.8812   22.3954  -21.2888 H   0  0  0  0  0  0  0  0  0  0  0  0
   -4.3098   20.9817  -21.8590 C   0  0  0  0  0  0  0  0  0  0  0  0
   -4.7675   20.3250  -22.6356 H   0  0  0  0  0  0  0  0  0  0  0  0
   -3.6431   22.1568  -22.6102 C   0  0  0  0  0  0  0  0  0  0  0  0
   -3.3038   22.9142  -21.8700 H   0  0  0  0  0  0  0  0  0  0  0  0
   -4.3882   22.6389  -23.2797 H   0  0  0  0  0  0  0  0  0  0  0  0
   -2.4385   21.6931  -23.4387 C   0  0  0  0  0  0  0  0  0  0  0  0
   -1.9616   22.5681  -23.9306 H   0  0  0  0  0  0  0  0  0  0  0  0
   -2.7883   20.9971  -24.2336 H   0  0  0  0  0  0  0  0  0  0  0  0
   -1.4141   20.9679  -22.5572 C   0  0  0  0  0  0  0  0  0  0  0  0
   -1.0551   21.6639  -21.7667 H   0  0  0  0  0  0  0  0  0  0  0  0
   -0.5409   20.6549  -23.1689 H   0  0  0  0  0  0  0  0  0  0  0  0
   -2.0555   19.7411  -21.8996 C   0  0  0  0  0  0  0  0  0  0  0  0
   -1.3132   19.2287  -21.2496 H   0  0  0  0  0  0  0  0  0  0  0  0
   -2.3684   19.0287  -22.6953 H   0  0  0  0  0  0  0  0  0  0  0  0
   -3.2815   20.1345  -21.0696 C   0  0  0  0  0  0  0  0  0  0  0  0
   -3.7771   19.2121  -20.6946 H   0  0  0  0  0  0  0  0  0  0  0  0
   -2.9396   20.7188  -20.1870 H   0  0  0  0  0  0  0  0  0  0  0  0
   -7.0985   25.5581  -27.7667 C   0  0  0  0  0  0  0  0  0  0  0  0
   -7.0107   26.6192  -27.9574 H   0  0  0  0  0  0  0  0  0  0  0  0
   -6.9456   25.0003  -26.5177 C   0  0  0  0  0  0  0  0  0  0  0  0
   -6.7123   25.5790  -25.6344 H   0  0  0  0  0  0  0  0  0  0  0  0
   -7.1052   23.6386  -26.4991 C   0  0  0  0  0  0  0  0  0  0  0  0
   -7.4191   23.0608  -28.0802 S   0  0  0  0  0  0  0  0  0  0  0  0
   -7.3698   24.6391  -28.7412 C   0  0  0  0  0  0  0  0  0  0  0  0
   -7.5338   24.7950  -29.8003 H   0  0  0  0  0  0  0  0  0  0  0  0
  1  2  2  0
  1 11  1  0
  2  3  1  0
  2  8  1  0
  3  4  1  0
  3  5  1  0
  5  6  1  0
  5  7  1  0
  5 42  1  0
  8  9  2  0
  9 10  1  0
  9 16  1  0
 10 11  2  0
 10 13  1  0
 11 12  1  0
 12 18  1  0
 13 14  2  0
 14 15  1  0
 14 16  1  0
 16 17  1  0
 18 19  1  0
 18 20  1  0
 18 21  1  0
 21 22  1  0
 21 23  1  0
 21 35  1  0
 23 24  1  0
 23 25  1  0
 23 26  1  0
 26 27  1  0
 26 28  1  0
 26 29  1  0
 29 30  1  0
 29 31  1  0
 29 32  1  0
 32 33  1  0
 32 34  1  0
 32 35  1  0
 35 36  1  0
 35 37  1  0
 38 39  1  0
 38 40  1  0
 38 44  2  0
 40 41  1  0
 40 42  2  0
 42 43  1  0
 43 44  1  0
 44 45  1  0
M  END
> <intraLJ>
15.073    

> <intraEL>
-6.330    

> <intraDihe>
15.827    

> <interLJ>
0.000     

> <interEJ>
0.000     

> <gridLJ>
-7.342    

> <gridEL>
0.000     

> <totalE>
17.227    

> <LGFE>
-7.342  

> <LE>
-0.306  

> <SMILES>
c1csc(CNc2nc(OCC3CCCCC3)c3nc[nH]c3n2)c1

> <atom.dprop.GFE>
0.0910 -0.0410 -1.4250 0.0000 -0.4332 0.0000 0.0000 -0.5190 -0.1342 -0.1532 -0.1107 -1.2450 -0.5730 -0.1542 0.0000 -0.9870 0.0000 -0.2980 0.0000 0.0000 -0.3630 0.0000 -0.2807 0.0000 0.0000 -0.1772 0.0000 0.0000 -0.3906 0.0000 0.0000 -0.4742 0.0000 0.0000 -0.3493 0.0000 0.0000 0.1259 0.0000 -0.0043 0.0000 0.0573 0.1775 0.3187 0.0000

> <atom.prop.CLASS>
IMIN GEHC FORN NCLA PRPC NCLA NCLA IMIN GEHC GEHC BENC DMEO IMIN GEHC NCLA IMIH NCLA PRPC NCLA NCLA PRPC NCLA PRPC NCLA NCLA PRPC NCLA NCLA PRPC NCLA NCLA PRPC NCLA NCLA PRPC NCLA NCLA GEHC NCLA GEHC NCLA GEHC PRPC GEHC NCLA

> <cluster_id>
1

> <rmsd_to_cluster_rep>
0.00    

> <ligRMSD>
2.35    

> <ligCOMD>
0.77    

$$$$
cdk2_hardcastle_44_254
     RDKit          3D

 50 53  0  0  0  0  0  0  0  0999 V2000
   -7.1724   20.9815  -23.9742 N   0  0  0  0  0  0  0  0  0  0  0  0
   -8.4837   20.8826  -24.3656 C   0  0  0  0  0  0  0  0  0  0  0  0
   -8.9064   21.5696  -25.4815 N   0  0  0  0  0  0  0  0  0  0  0  0
   -9.8548   21.3425  -25.7727 H   0  0  0  0  0  0  0  0  0  0  0  0
   -7.9868   22.0627  -26.5567 C   0  0  0  0  0  0  0  0  0  0  0  0
   -8.6023   22.4452  -27.3991 H   0  0  0  0  0  0  0  0  0  0  0  0
   -7.4017   21.1964  -26.9405 H   0  0  0  0  0  0  0  0  0  0  0  0
   -9.4188   20.1159  -23.7333 N   0  0  0  0  0  0  0  0  0  0  0  0
   -8.9523   19.4386  -22.6834 C   0  0  0  0  0  0  0  0  0  0  0  0
   -7.6339   19.4839  -22.2168 C   0  0  0  0  0  0  0  0  0  0  0  0
   -6.7240   20.3069  -22.9098 C   0  0  0  0  0  0  0  0  0  0  0  0
   -5.4037   20.3583  -22.4442 O   0  0  0  0  0  0  0  0  0  0  0  0
   -7.4906   18.6680  -21.1158 N   0  0  0  0  0  0  0  0  0  0  0  0
   -8.6967   18.1467  -20.9329 C   0  0  0  0  0  0  0  0  0  0  0  0
   -8.9554   17.4442  -20.1398 H   0  0  0  0  0  0  0  0  0  0  0  0
   -9.6178   18.5800  -21.8566 N   0  0  0  0  0  0  0  0  0  0  0  0
  -10.5918   18.3282  -21.9269 H   0  0  0  0  0  0  0  0  0  0  0  0
   -4.5331   21.2556  -23.1368 C   0  0  0  0  0  0  0  0  0  0  0  0
   -4.9155   22.3028  -23.1454 H   0  0  0  0  0  0  0  0  0  0  0  0
   -4.3941   20.9075  -24.1829 H   0  0  0  0  0  0  0  0  0  0  0  0
   -3.1886   21.2682  -22.3903 C   0  0  0  0  0  0  0  0  0  0  0  0
   -2.5553   22.0821  -22.8140 H   0  0  0  0  0  0  0  0  0  0  0  0
   -3.3626   21.5758  -20.8856 C   0  0  0  0  0  0  0  0  0  0  0  0
   -4.1042   20.8669  -20.4582 H   0  0  0  0  0  0  0  0  0  0  0  0
   -3.7592   22.6064  -20.7600 H   0  0  0  0  0  0  0  0  0  0  0  0
   -2.0425   21.4388  -20.1156 C   0  0  0  0  0  0  0  0  0  0  0  0
   -2.2196   21.6208  -19.0336 H   0  0  0  0  0  0  0  0  0  0  0  0
   -1.3244   22.2051  -20.4835 H   0  0  0  0  0  0  0  0  0  0  0  0
   -1.4312   20.0461  -20.3151 C   0  0  0  0  0  0  0  0  0  0  0  0
   -2.1405   19.2797  -19.9293 H   0  0  0  0  0  0  0  0  0  0  0  0
   -0.4820   19.9622  -19.7439 H   0  0  0  0  0  0  0  0  0  0  0  0
   -1.1694   19.7881  -21.8031 C   0  0  0  0  0  0  0  0  0  0  0  0
   -0.7453   18.7697  -21.9409 H   0  0  0  0  0  0  0  0  0  0  0  0
   -0.4232   20.5269  -22.1715 H   0  0  0  0  0  0  0  0  0  0  0  0
   -2.4562   19.9243  -22.6232 C   0  0  0  0  0  0  0  0  0  0  0  0
   -2.2128   19.8208  -23.7033 H   0  0  0  0  0  0  0  0  0  0  0  0
   -3.1418   19.0925  -22.3468 H   0  0  0  0  0  0  0  0  0  0  0  0
   -6.1764   24.9538  -24.9449 C   0  0  0  0  0  0  0  0  0  0  0  0
   -6.1895   25.7639  -24.2280 H   0  0  0  0  0  0  0  0  0  0  0  0
   -7.2680   24.1521  -25.1931 C   0  0  0  0  0  0  0  0  0  0  0  0
   -8.2186   24.2764  -24.6920 H   0  0  0  0  0  0  0  0  0  0  0  0
   -7.0343   23.1612  -26.1105 C   0  0  0  0  0  0  0  0  0  0  0  0
   -5.4169   23.2632  -26.6734 S   0  0  0  0  0  0  0  0  0  0  0  0
   -5.0567   24.5986  -25.6517 C   0  0  0  0  0  0  0  0  0  0  0  0
   -3.4772   25.3598  -25.6135 S   0  0  0  0  0  0  0  0  0  0  0  0
   -2.5833   24.2213  -24.7658 N   0  0  0  0  0  0  0  0  0  0  0  0
   -2.8647   24.0893  -23.7954 H   0  0  0  0  0  0  0  0  0  0  0  0
   -2.4692   23.3249  -25.2364 H   0  0  0  0  0  0  0  0  0  0  0  0
   -3.0166   25.4235  -26.9760 O   0  0  0  0  0  0  0  0  0  0  0  0
   -3.5904   26.5628  -24.8314 O   0  0  0  0  0  0  0  0  0  0  0  0
  1  2  2  0
  1 11  1  0
  2  3  1  0
  2  8  1  0
  3  4  1  0
  3  5  1  0
  5  6  1  0
  5  7  1  0
  5 42  1  0
  8  9  2  0
  9 10  1  0
  9 16  1  0
 10 11  2  0
 10 13  1  0
 11 12  1  0
 12 18  1  0
 13 14  2  0
 14 15  1  0
 14 16  1  0
 16 17  1  0
 18 19  1  0
 18 20  1  0
 18 21  1  0
 21 22  1  0
 21 23  1  0
 21 35  1  0
 23 24  1  0
 23 25  1  0
 23 26  1  0
 26 27  1  0
 26 28  1  0
 26 29  1  0
 29 30  1  0
 29 31  1  0
 29 32  1  0
 32 33  1  0
 32 34  1  0
 32 35  1  0
 35 36  1  0
 35 37  1  0
 38 39  1  0
 38 40  1  0
 38 44  2  0
 40 41  1  0
 40 42  2  0
 42 43  1  0
 43 44  1  0
 44 45  1  0
 45 46  1  0
 45 49  2  0
 45 50  2  0
 46 47  1  0
 46 48  1  0
M  END
> <intraLJ>
11.739    

> <intraEL>
-10.116   

> <intraDihe>
28.274    

> <interLJ>
0.000     

> <interEJ>
0.000     

> <gridLJ>
-8.410    

> <gridEL>
0.000     

> <totalE>
21.487    

> <LGFE>
-8.410  

> <LE>
-0.300  

> <SMILES>
NS(=O)(=O)c1ccc(CNc2nc(OCC3CCCCC3)c3nc[nH]c3n2)s1

> <atom.dprop.GFE>
0.1380 -0.0986 -0.5290 0.0000 -0.5288 0.0000 0.0000 -1.0750 -0.1532 -0.0673 -0.0907 -1.1330 -0.5800 -0.0043 0.0000 -0.9870 0.0000 -0.4053 0.0000 0.0000 -0.3783 0.0000 -0.2108 0.0000 0.0000 -0.0773 0.0000 0.0000 -0.1082 0.0000 0.0000 -0.3730 0.0000 0.0000 -0.5065 0.0000 0.0000 -0.2747 0.0000 -0.1522 0.0000 0.3080 0.0413 -0.2304 0.0000 -0.2770 0.0000 0.0000 0.0120 -0.6690

> <atom.prop.CLASS>
IMIN GEHC FORN NCLA PRPC NCLA NCLA IMIN GEHC GEHC BENC DMEO IMIN GEHC NCLA IMIH NCLA PRPC NCLA NCLA PRPC NCLA PRPC NCLA NCLA PRPC NCLA NCLA PRPC NCLA NCLA PRPC NCLA NCLA PRPC NCLA NCLA GEHC NCLA GEHC NCLA GEHC PRPC GEHC NCLA FORN NCLA NCLA FORO FORO

> <cluster_id>
1

> <rmsd_to_cluster_rep>
0.00    

> <ligRMSD>
2.32    

> <ligCOMD>
0.83    

$$$$
cdk2_hardcastle_46_121
     RDKit          3D

 52 55  0  0  0  0  0  0  0  0999 V2000
   -7.3256   21.1842  -22.5089 N   0  0  0  0  0  0  0  0  0  0  0  0
   -8.3904   21.4006  -23.3500 C   0  0  0  0  0  0  0  0  0  0  0  0
   -8.2893   22.5193  -24.1765 N   0  0  0  0  0  0  0  0  0  0  0  0
   -8.3995   22.3589  -25.5951 N   0  0  0  0  0  0  0  0  0  0  0  0
   -8.1916   21.3700  -25.6696 H   0  0  0  0  0  0  0  0  0  0  0  0
   -7.4091   22.9910  -24.0323 H   0  0  0  0  0  0  0  0  0  0  0  0
   -9.4875   20.5692  -23.4106 N   0  0  0  0  0  0  0  0  0  0  0  0
   -9.4724   19.5544  -22.5525 C   0  0  0  0  0  0  0  0  0  0  0  0
   -8.4616   19.3057  -21.6242 C   0  0  0  0  0  0  0  0  0  0  0  0
   -7.3531   20.1779  -21.6163 C   0  0  0  0  0  0  0  0  0  0  0  0
   -6.3488   19.9218  -20.6709 O   0  0  0  0  0  0  0  0  0  0  0  0
   -8.7744   18.1938  -20.8688 N   0  0  0  0  0  0  0  0  0  0  0  0
   -9.9465   17.7909  -21.3427 C   0  0  0  0  0  0  0  0  0  0  0  0
  -10.5017   16.9266  -20.9762 H   0  0  0  0  0  0  0  0  0  0  0  0
  -10.4117   18.5802  -22.3666 N   0  0  0  0  0  0  0  0  0  0  0  0
  -11.2727   18.4827  -22.8827 H   0  0  0  0  0  0  0  0  0  0  0  0
   -5.2445   20.8269  -20.6689 C   0  0  0  0  0  0  0  0  0  0  0  0
   -4.6836   20.8163  -19.7054 H   0  0  0  0  0  0  0  0  0  0  0  0
   -5.6118   21.8568  -20.8670 H   0  0  0  0  0  0  0  0  0  0  0  0
   -4.2705   20.3847  -21.7762 C   0  0  0  0  0  0  0  0  0  0  0  0
   -4.8507   20.2272  -22.7152 H   0  0  0  0  0  0  0  0  0  0  0  0
   -3.2130   21.4707  -22.0819 C   0  0  0  0  0  0  0  0  0  0  0  0
   -2.7098   21.7618  -21.1338 H   0  0  0  0  0  0  0  0  0  0  0  0
   -3.7165   22.3717  -22.4950 H   0  0  0  0  0  0  0  0  0  0  0  0
   -2.1541   20.9789  -23.0777 C   0  0  0  0  0  0  0  0  0  0  0  0
   -1.3893   21.7701  -23.2335 H   0  0  0  0  0  0  0  0  0  0  0  0
   -2.6430   20.7729  -24.0561 H   0  0  0  0  0  0  0  0  0  0  0  0
   -1.4802   19.6943  -22.5788 C   0  0  0  0  0  0  0  0  0  0  0  0
   -0.9691   19.9025  -21.6126 H   0  0  0  0  0  0  0  0  0  0  0  0
   -0.7159   19.3576  -23.3117 H   0  0  0  0  0  0  0  0  0  0  0  0
   -2.5244   18.5914  -22.3710 C   0  0  0  0  0  0  0  0  0  0  0  0
   -2.0311   17.6712  -21.9889 H   0  0  0  0  0  0  0  0  0  0  0  0
   -2.9929   18.3506  -23.3513 H   0  0  0  0  0  0  0  0  0  0  0  0
   -3.6161   19.0351  -21.3911 C   0  0  0  0  0  0  0  0  0  0  0  0
   -4.4006   18.2483  -21.3403 H   0  0  0  0  0  0  0  0  0  0  0  0
   -3.1662   19.1324  -20.3785 H   0  0  0  0  0  0  0  0  0  0  0  0
   -5.8152   24.3519  -28.3412 C   0  0  0  0  0  0  0  0  0  0  0  0
   -5.5879   24.4808  -26.9570 C   0  0  0  0  0  0  0  0  0  0  0  0
   -4.7526   25.0628  -26.5948 H   0  0  0  0  0  0  0  0  0  0  0  0
   -6.4262   23.8538  -26.0267 C   0  0  0  0  0  0  0  0  0  0  0  0
   -6.2155   23.9760  -24.9742 H   0  0  0  0  0  0  0  0  0  0  0  0
   -7.5280   23.0821  -26.4513 C   0  0  0  0  0  0  0  0  0  0  0  0
   -7.7647   22.9716  -27.8352 C   0  0  0  0  0  0  0  0  0  0  0  0
   -8.5969   22.3868  -28.2043 H   0  0  0  0  0  0  0  0  0  0  0  0
   -6.9155   23.5825  -28.7673 C   0  0  0  0  0  0  0  0  0  0  0  0
   -7.1193   23.4595  -29.8212 H   0  0  0  0  0  0  0  0  0  0  0  0
   -4.7247   25.1304  -29.5076 S   0  0  0  0  0  0  0  0  0  0  0  0
   -3.6534   23.8851  -29.8455 N   0  0  0  0  0  0  0  0  0  0  0  0
   -3.0784   23.5865  -29.0589 H   0  0  0  0  0  0  0  0  0  0  0  0
   -4.0625   23.0823  -30.3215 H   0  0  0  0  0  0  0  0  0  0  0  0
   -5.5432   25.4277  -30.6547 O   0  0  0  0  0  0  0  0  0  0  0  0
   -4.0721   26.1804  -28.7686 O   0  0  0  0  0  0  0  0  0  0  0  0
  1  2  2  0
  1 10  1  0
  2  3  1  0
  2  7  1  0
  3  4  1  0
  3  6  1  0
  4  5  1  0
  4 42  1  0
  7  8  2  0
  8  9  1  0
  8 15  1  0
  9 10  2  0
  9 12  1  0
 10 11  1  0
 11 17  1  0
 12 13  2  0
 13 14  1  0
 13 15  1  0
 15 16  1  0
 17 18  1  0
 17 19  1  0
 17 20  1  0
 20 21  1  0
 20 22  1  0
 20 34  1  0
 22 23  1  0
 22 24  1  0
 22 25  1  0
 25 26  1  0
 25 27  1  0
 25 28  1  0
 28 29  1  0
 28 30  1  0
 28 31  1  0
 31 32  1  0
 31 33  1  0
 31 34  1  0
 34 35  1  0
 34 36  1  0
 37 38  2  0
 37 45  1  0
 37 47  1  0
 38 39  1  0
 38 40  1  0
 40 41  1  0
 40 42  2  0
 42 43  1  0
 43 44  1  0
 43 45  2  0
 45 46  1  0
 47 48  1  0
 47 51  2  0
 47 52  2  0
 48 49  1  0
 48 50  1  0
M  END
> <intraLJ>
27.405    

> <intraEL>
-2.236    

> <intraDihe>
26.503    

> <interLJ>
0.000     

> <interEJ>
0.000     

> <gridLJ>
-7.172    

> <gridEL>
0.000     

> <totalE>
44.500    

> <LGFE>
-7.172  

> <LE>
-0.247  

> <SMILES>
NS(=O)(=O)c1ccc(NNc2nc(OCC3CCCCC3)c3nc[nH]c3n2)cc1

> <atom.dprop.GFE>
-0.4130 0.0573 0.1380 -0.4770 0.0000 0.0000 -1.0750 -0.1958 -0.0733 -0.0863 -1.4510 -0.4940 -0.1542 0.0000 -0.9870 0.0000 -0.1372 0.0000 0.0000 -0.4229 0.0000 -0.3783 0.0000 0.0000 -0.3420 0.0000 0.0000 -0.4742 0.0000 0.0000 -0.3939 0.0000 0.0000 -0.0886 0.0000 0.0000 0.1431 0.0882 0.0000 -0.0369 0.0000 -0.0282 0.2047 0.0000 0.2537 0.0000 0.0000 -0.4160 0.0000 0.0000 -0.2140 0.2820

> <atom.prop.CLASS>
IMIN GEHC IMIH IMIH NCLA NCLA IMIN GEHC GEHC BENC DMEO IMIN GEHC NCLA IMIH NCLA PRPC NCLA NCLA PRPC NCLA PRPC NCLA NCLA PRPC NCLA NCLA PRPC NCLA NCLA PRPC NCLA NCLA PRPC NCLA NCLA BENC BENC NCLA BENC NCLA BENC BENC NCLA BENC NCLA NCLA FORN NCLA NCLA FORO FORO

> <cluster_id>
1

> <rmsd_to_cluster_rep>
0.00    

> <ligRMSD>
2.79    

> <ligCOMD>
0.88    

$$$$
